# File generated by Flopy version 3.9.4 on 10/22/2025 at 13:15:12.
BEGIN OPTIONS
  SAVE_FLOWS
END OPTIONS

BEGIN GRIDDATA
  iconvert
    CONSTANT  1
  ss  LAYERED
    CONSTANT  1.00000000E-05
    CONSTANT  1.00000000E-08
    CONSTANT  1.25000000E-06
    CONSTANT  1.00000000E-08
    CONSTANT  1.00000000E-05
  sy
    CONSTANT       0.00000000
END GRIDDATA

BEGIN PERIOD  1
  STEADY-STATE
END PERIOD  1

BEGIN PERIOD  2
  TRANSIENT
END PERIOD  2

BEGIN PERIOD  3
  TRANSIENT
END PERIOD  3

BEGIN PERIOD  4
  TRANSIENT
END PERIOD  4

BEGIN PERIOD  5
  TRANSIENT
END PERIOD  5

BEGIN PERIOD  6
  TRANSIENT
END PERIOD  6

BEGIN PERIOD  7
  TRANSIENT
END PERIOD  7

BEGIN PERIOD  8
  TRANSIENT
END PERIOD  8

BEGIN PERIOD  9
  TRANSIENT
END PERIOD  9

BEGIN PERIOD  10
  TRANSIENT
END PERIOD  10

BEGIN PERIOD  11
  TRANSIENT
END PERIOD  11

BEGIN PERIOD  12
  TRANSIENT
END PERIOD  12

BEGIN PERIOD  13
  TRANSIENT
END PERIOD  13

BEGIN PERIOD  14
  TRANSIENT
END PERIOD  14

BEGIN PERIOD  15
  TRANSIENT
END PERIOD  15

BEGIN PERIOD  16
  TRANSIENT
END PERIOD  16

BEGIN PERIOD  17
  TRANSIENT
END PERIOD  17

BEGIN PERIOD  18
  TRANSIENT
END PERIOD  18

BEGIN PERIOD  19
  TRANSIENT
END PERIOD  19

BEGIN PERIOD  20
  TRANSIENT
END PERIOD  20

BEGIN PERIOD  21
  TRANSIENT
END PERIOD  21

