# File generated by Flopy version 3.9.4 on 10/22/2025 at 13:15:13.
BEGIN OPTIONS
  AUXILIARY  temp  tds  cellgrp
  BOUNDNAMES
  PRINT_INPUT
  PRINT_FLOWS
  SAVE_FLOWS
END OPTIONS

BEGIN DIMENSIONS
  MAXBOUND  2064
END DIMENSIONS

BEGIN PERIOD  1
  1 1 1.38157997E+01 2.40000000E+01 2.04400000E-02 1 
  1 2 1.38157997E+01 2.40000000E+01 2.04400000E-02 1 
  1 3 1.38157997E+01 2.40000000E+01 2.04400000E-02 1 
  1 4 1.38157997E+01 2.40000000E+01 2.04400000E-02 1 
  1 5 1.38157997E+01 2.40000000E+01 2.04400000E-02 1 
  1 6 1.38157997E+01 2.40000000E+01 2.04400000E-02 1 
  1 7 1.38157997E+01 2.40000000E+01 2.04400000E-02 1 
  1 8 1.38157997E+01 2.40000000E+01 2.04400000E-02 1 
  1 9 1.38157997E+01 2.40000000E+01 2.04400000E-02 1 
  1 10 1.38157997E+01 2.40000000E+01 2.04400000E-02 1 
  1 11 1.38157997E+01 2.40000000E+01 2.04400000E-02 1 
  1 12 1.38157997E+01 2.40000000E+01 2.04400000E-02 1 
  1 13 1.38157997E+01 2.40000000E+01 2.04400000E-02 1 
  1 14 1.38157997E+01 2.40000000E+01 2.04400000E-02 1 
  1 15 1.38157997E+01 2.40000000E+01 2.04400000E-02 1 
  1 16 1.38157997E+01 2.40000000E+01 2.04400000E-02 1 
  1 17 1.38157997E+01 2.40000000E+01 2.04400000E-02 1 
  1 18 1.38157997E+01 2.40000000E+01 2.04400000E-02 1 
  1 19 1.38157997E+01 2.40000000E+01 2.04400000E-02 1 
  1 20 1.38157997E+01 2.40000000E+01 2.04400000E-02 1 
  1 21 1.38157997E+01 2.40000000E+01 2.04400000E-02 1 
  1 22 1.38157997E+01 2.40000000E+01 2.04400000E-02 1 
  1 23 1.38157997E+01 2.40000000E+01 2.04400000E-02 1 
  1 24 1.38157997E+01 2.40000000E+01 2.04400000E-02 1 
  1 25 1.38157997E+01 2.40000000E+01 2.04400000E-02 1 
  1 26 1.38157997E+01 2.40000000E+01 2.04400000E-02 1 
  1 27 1.38157997E+01 2.40000000E+01 2.04400000E-02 1 
  1 28 1.38157997E+01 2.40000000E+01 2.04400000E-02 1 
  1 29 1.38157997E+01 2.40000000E+01 2.04400000E-02 1 
  1 30 1.38157997E+01 2.40000000E+01 2.04400000E-02 1 
  1 31 1.38157997E+01 2.40000000E+01 2.04400000E-02 1 
  1 32 1.38157997E+01 2.40000000E+01 2.04400000E-02 1 
  1 33 1.38157997E+01 2.40000000E+01 2.04400000E-02 1 
  1 34 1.38157997E+01 2.40000000E+01 2.04400000E-02 1 
  1 35 1.38157997E+01 2.40000000E+01 2.04400000E-02 1 
  1 36 1.38157997E+01 2.40000000E+01 2.04400000E-02 1 
  1 37 1.38157997E+01 2.40000000E+01 2.04400000E-02 1 
  1 38 1.38157997E+01 2.40000000E+01 2.04400000E-02 1 
  1 39 1.38157997E+01 2.40000000E+01 2.04400000E-02 1 
  1 40 1.38157997E+01 2.40000000E+01 2.04400000E-02 1 
  1 41 1.38157997E+01 2.40000000E+01 2.04400000E-02 1 
  1 42 1.38157997E+01 2.40000000E+01 2.04400000E-02 1 
  1 43 1.38157997E+01 2.40000000E+01 2.04400000E-02 1 
  1 44 1.38157997E+01 2.40000000E+01 2.04400000E-02 1 
  1 45 1.38157997E+01 2.40000000E+01 2.04400000E-02 1 
  1 46 1.38157997E+01 2.40000000E+01 2.04400000E-02 1 
  1 47 1.38157997E+01 2.40000000E+01 2.04400000E-02 1 
  1 48 1.38157997E+01 2.40000000E+01 2.04400000E-02 1 
  1 49 1.38157997E+01 2.40000000E+01 2.04400000E-02 1 
  1 50 1.38157997E+01 2.40000000E+01 2.04400000E-02 1 
  1 51 1.38157997E+01 2.40000000E+01 2.04400000E-02 1 
  1 52 1.38157997E+01 2.40000000E+01 2.04400000E-02 1 
  1 53 1.38157997E+01 2.40000000E+01 2.04400000E-02 1 
  1 54 1.38157997E+01 2.40000000E+01 2.04400000E-02 1 
  1 55 1.38157997E+01 2.40000000E+01 2.04400000E-02 1 
  1 56 1.38157997E+01 2.40000000E+01 2.04400000E-02 1 
  1 57 1.38157997E+01 2.40000000E+01 2.04400000E-02 1 
  1 58 1.38157997E+01 2.40000000E+01 2.04400000E-02 1 
  1 59 1.38157997E+01 2.40000000E+01 2.04400000E-02 1 
  1 60 1.38157997E+01 2.40000000E+01 2.04400000E-02 1 
  1 61 1.38157997E+01 2.40000000E+01 2.04400000E-02 1 
  1 62 1.38157997E+01 2.40000000E+01 2.04400000E-02 1 
  1 63 1.38157997E+01 2.40000000E+01 2.04400000E-02 1 
  1 64 1.38157997E+01 2.40000000E+01 2.04400000E-02 1 
  1 65 1.38157997E+01 2.40000000E+01 2.04400000E-02 1 
  1 66 1.38157997E+01 2.40000000E+01 2.04400000E-02 1 
  1 67 1.38157997E+01 2.40000000E+01 2.04400000E-02 1 
  1 68 1.38157997E+01 2.40000000E+01 2.04400000E-02 1 
  1 69 1.38157997E+01 2.40000000E+01 2.04400000E-02 1 
  1 70 1.38157997E+01 2.40000000E+01 2.04400000E-02 1 
  1 71 1.38157997E+01 2.40000000E+01 2.04400000E-02 1 
  1 72 1.38157997E+01 2.40000000E+01 2.04400000E-02 1 
  1 73 1.38157997E+01 2.40000000E+01 2.04400000E-02 1 
  1 74 1.38157997E+01 2.40000000E+01 2.04400000E-02 1 
  1 75 1.38157997E+01 2.40000000E+01 2.04400000E-02 1 
  1 76 1.38157997E+01 2.40000000E+01 2.04400000E-02 1 
  1 77 1.38157997E+01 2.40000000E+01 2.04400000E-02 1 
  1 78 1.38157997E+01 2.40000000E+01 2.04400000E-02 1 
  1 79 1.38157997E+01 2.40000000E+01 2.04400000E-02 1 
  1 80 1.38157997E+01 2.40000000E+01 2.04400000E-02 1 
  1 81 1.38157997E+01 2.40000000E+01 2.04400000E-02 1 
  1 82 1.38157997E+01 2.40000000E+01 2.04400000E-02 1 
  1 83 1.38157997E+01 2.40000000E+01 2.04400000E-02 1 
  1 84 1.38157997E+01 2.40000000E+01 2.04400000E-02 1 
  1 85 1.38157997E+01 2.40000000E+01 2.04400000E-02 1 
  1 86 1.38157997E+01 2.40000000E+01 2.04400000E-02 1 
  1 87 1.38157997E+01 2.40000000E+01 2.04400000E-02 1 
  1 88 1.38157997E+01 2.40000000E+01 2.04400000E-02 1 
  1 89 1.38157997E+01 2.40000000E+01 2.04400000E-02 1 
  1 90 1.38157997E+01 2.40000000E+01 2.04400000E-02 1 
  1 91 1.38157997E+01 2.40000000E+01 2.04400000E-02 1 
  1 92 1.38157997E+01 2.40000000E+01 2.04400000E-02 1 
  1 93 1.38157997E+01 2.40000000E+01 2.04400000E-02 1 
  1 94 1.38157997E+01 2.40000000E+01 2.04400000E-02 1 
  1 95 1.38157997E+01 2.40000000E+01 2.04400000E-02 1 
  1 96 1.38157997E+01 2.40000000E+01 2.04400000E-02 1 
  1 97 1.38157997E+01 2.40000000E+01 2.04400000E-02 1 
  1 98 1.38157997E+01 2.40000000E+01 2.04400000E-02 1 
  1 99 1.38157997E+01 2.40000000E+01 2.04400000E-02 1 
  1 100 1.38157997E+01 2.40000000E+01 2.04400000E-02 1 
  1 101 1.38157997E+01 2.40000000E+01 2.04400000E-02 1 
  1 102 1.38157997E+01 2.40000000E+01 2.04400000E-02 1 
  1 103 1.38157997E+01 2.40000000E+01 2.04400000E-02 1 
  1 104 1.38157997E+01 2.40000000E+01 2.04400000E-02 1 
  1 105 1.38157997E+01 2.40000000E+01 2.04400000E-02 1 
  1 106 1.38157997E+01 2.40000000E+01 2.04400000E-02 1 
  1 107 1.38157997E+01 2.40000000E+01 2.04400000E-02 1 
  1 108 1.38157997E+01 2.40000000E+01 2.04400000E-02 1 
  1 109 1.38157997E+01 2.40000000E+01 2.04400000E-02 1 
  1 110 1.38157997E+01 2.40000000E+01 2.04400000E-02 1 
  1 111 1.38157997E+01 2.40000000E+01 2.04400000E-02 1 
  1 112 1.38157997E+01 2.40000000E+01 2.04400000E-02 1 
  1 113 1.38157997E+01 2.40000000E+01 2.04400000E-02 1 
  1 114 1.38157997E+01 2.40000000E+01 2.04400000E-02 1 
  1 115 1.38157997E+01 2.40000000E+01 2.04400000E-02 1 
  1 116 1.38157997E+01 2.40000000E+01 2.04400000E-02 1 
  1 117 1.38157997E+01 2.40000000E+01 2.04400000E-02 1 
  1 118 1.38157997E+01 2.40000000E+01 2.04400000E-02 1 
  1 119 1.38157997E+01 2.40000000E+01 2.04400000E-02 1 
  1 120 1.38157997E+01 2.40000000E+01 2.04400000E-02 1 
  1 121 1.38157997E+01 2.40000000E+01 2.04400000E-02 1 
  1 122 1.38157997E+01 2.40000000E+01 2.04400000E-02 1 
  1 123 1.38157997E+01 2.40000000E+01 2.04400000E-02 1 
  1 124 1.38157997E+01 2.40000000E+01 2.04400000E-02 1 
  1 125 1.38157997E+01 2.40000000E+01 2.04400000E-02 1 
  1 126 1.38157997E+01 2.40000000E+01 2.04400000E-02 1 
  1 127 1.38157997E+01 2.40000000E+01 2.04400000E-02 1 
  1 128 1.38157997E+01 2.40000000E+01 2.04400000E-02 1 
  1 129 1.38157997E+01 2.40000000E+01 2.04400000E-02 1 
  1 130 1.38157997E+01 2.40000000E+01 2.04400000E-02 1 
  1 131 1.38157997E+01 2.40000000E+01 2.04400000E-02 1 
  1 132 1.38157997E+01 2.40000000E+01 2.04400000E-02 1 
  1 133 1.38157997E+01 2.40000000E+01 2.04400000E-02 1 
  1 134 1.38157997E+01 2.40000000E+01 2.04400000E-02 1 
  1 135 1.38157997E+01 2.40000000E+01 2.04400000E-02 1 
  1 136 1.38157997E+01 2.40000000E+01 2.04400000E-02 1 
  1 137 1.38157997E+01 2.40000000E+01 2.04400000E-02 1 
  1 138 1.38157997E+01 2.40000000E+01 2.04400000E-02 1 
  1 139 1.38157997E+01 2.40000000E+01 2.04400000E-02 1 
  1 140 1.38157997E+01 2.40000000E+01 2.04400000E-02 1 
  1 141 1.38157997E+01 2.40000000E+01 2.04400000E-02 1 
  1 142 1.38157997E+01 2.40000000E+01 2.04400000E-02 1 
  1 143 1.38157997E+01 2.40000000E+01 2.04400000E-02 1 
  1 144 1.38157997E+01 2.40000000E+01 2.04400000E-02 1 
  1 145 1.38157997E+01 2.40000000E+01 2.04400000E-02 1 
  1 146 1.38157997E+01 2.40000000E+01 2.04400000E-02 1 
  1 147 1.38157997E+01 2.40000000E+01 2.04400000E-02 1 
  1 148 1.38157997E+01 2.40000000E+01 2.04400000E-02 1 
  1 149 1.38157997E+01 2.40000000E+01 2.04400000E-02 1 
  1 150 1.38157997E+01 2.40000000E+01 2.04400000E-02 1 
  1 151 1.38157997E+01 2.40000000E+01 2.04400000E-02 1 
  1 152 1.38157997E+01 2.40000000E+01 2.04400000E-02 1 
  1 153 1.38157997E+01 2.40000000E+01 2.04400000E-02 1 
  1 154 1.38157997E+01 2.40000000E+01 2.04400000E-02 1 
  1 155 1.38157997E+01 2.40000000E+01 2.04400000E-02 1 
  1 156 1.38157997E+01 2.40000000E+01 2.04400000E-02 1 
  1 157 1.38157997E+01 2.40000000E+01 2.04400000E-02 1 
  1 158 1.38157997E+01 2.40000000E+01 2.04400000E-02 1 
  1 159 1.38157997E+01 2.40000000E+01 2.04400000E-02 1 
  1 160 1.38157997E+01 2.40000000E+01 2.04400000E-02 1 
  1 161 1.38157997E+01 2.40000000E+01 2.04400000E-02 1 
  1 162 1.38157997E+01 2.40000000E+01 2.04400000E-02 1 
  1 163 1.38157997E+01 2.40000000E+01 2.04400000E-02 1 
  1 164 1.38157997E+01 2.40000000E+01 2.04400000E-02 1 
  1 165 1.38157997E+01 2.40000000E+01 2.04400000E-02 1 
  1 166 1.38157997E+01 2.40000000E+01 2.04400000E-02 1 
  1 167 1.38157997E+01 2.40000000E+01 2.04400000E-02 1 
  1 168 1.38157997E+01 2.40000000E+01 2.04400000E-02 1 
  1 169 1.38157997E+01 2.40000000E+01 2.04400000E-02 1 
  1 170 1.38157997E+01 2.40000000E+01 2.04400000E-02 1 
  1 171 1.38157997E+01 2.40000000E+01 2.04400000E-02 1 
  1 172 1.38157997E+01 2.40000000E+01 2.04400000E-02 1 
  1 173 1.38157997E+01 2.40000000E+01 2.04400000E-02 1 
  1 174 1.38157997E+01 2.40000000E+01 2.04400000E-02 1 
  1 175 1.38157997E+01 2.40000000E+01 2.04400000E-02 1 
  1 176 1.38157997E+01 2.40000000E+01 2.04400000E-02 1 
  1 177 1.38157997E+01 2.40000000E+01 2.04400000E-02 1 
  1 178 1.38157997E+01 2.40000000E+01 2.04400000E-02 1 
  1 179 1.38157997E+01 2.40000000E+01 2.04400000E-02 1 
  1 180 1.38157997E+01 2.40000000E+01 2.04400000E-02 1 
  1 181 1.38157997E+01 2.40000000E+01 2.04400000E-02 1 
  1 182 1.38157997E+01 2.40000000E+01 2.04400000E-02 1 
  1 183 1.38157997E+01 2.40000000E+01 2.04400000E-02 1 
  1 184 1.38157997E+01 2.40000000E+01 2.04400000E-02 1 
  1 185 1.38157997E+01 2.40000000E+01 2.04400000E-02 1 
  1 186 1.38157997E+01 2.40000000E+01 2.04400000E-02 1 
  1 187 1.38157997E+01 2.40000000E+01 2.04400000E-02 1 
  1 188 1.38157997E+01 2.40000000E+01 2.04400000E-02 1 
  1 189 1.38157997E+01 2.40000000E+01 2.04400000E-02 1 
  1 190 1.38157997E+01 2.40000000E+01 2.04400000E-02 1 
  1 191 1.38157997E+01 2.40000000E+01 2.04400000E-02 1 
  1 192 1.38157997E+01 2.40000000E+01 2.04400000E-02 1 
  1 193 1.38157997E+01 2.40000000E+01 2.04400000E-02 1 
  1 194 1.38157997E+01 2.40000000E+01 2.04400000E-02 1 
  1 195 1.38157997E+01 2.40000000E+01 2.04400000E-02 1 
  1 196 1.38157997E+01 2.40000000E+01 2.04400000E-02 1 
  1 197 1.38157997E+01 2.40000000E+01 2.04400000E-02 1 
  1 198 1.38157997E+01 2.40000000E+01 2.04400000E-02 1 
  1 199 1.38157997E+01 2.40000000E+01 2.04400000E-02 1 
  1 200 1.38157997E+01 2.40000000E+01 2.04400000E-02 1 
  1 201 1.38157997E+01 2.40000000E+01 2.04400000E-02 1 
  1 202 1.38157997E+01 2.40000000E+01 2.04400000E-02 1 
  1 203 1.38157997E+01 2.40000000E+01 2.04400000E-02 1 
  1 204 1.38157997E+01 2.40000000E+01 2.04400000E-02 1 
  1 205 1.38157997E+01 2.40000000E+01 2.04400000E-02 1 
  1 206 1.38157997E+01 2.40000000E+01 2.04400000E-02 1 
  1 207 1.38157997E+01 2.40000000E+01 2.04400000E-02 1 
  1 208 1.38157997E+01 2.40000000E+01 2.04400000E-02 1 
  1 209 1.38157997E+01 2.40000000E+01 2.04400000E-02 1 
  1 210 1.38157997E+01 2.40000000E+01 2.04400000E-02 1 
  1 211 1.38157997E+01 2.40000000E+01 2.04400000E-02 1 
  1 212 1.38157997E+01 2.40000000E+01 2.04400000E-02 1 
  1 213 1.38157997E+01 2.40000000E+01 2.04400000E-02 1 
  1 214 1.38157997E+01 2.40000000E+01 2.04400000E-02 1 
  1 215 1.38157997E+01 2.40000000E+01 2.04400000E-02 1 
  1 216 1.38157997E+01 2.40000000E+01 2.04400000E-02 1 
  1 217 1.38157997E+01 2.40000000E+01 2.04400000E-02 1 
  1 218 1.38157997E+01 2.40000000E+01 2.04400000E-02 1 
  1 219 1.38157997E+01 2.40000000E+01 2.04400000E-02 1 
  1 220 1.38157997E+01 2.40000000E+01 2.04400000E-02 1 
  1 221 1.38157997E+01 2.40000000E+01 2.04400000E-02 1 
  1 222 1.38157997E+01 2.40000000E+01 2.04400000E-02 1 
  1 223 1.38157997E+01 2.40000000E+01 2.04400000E-02 1 
  1 224 1.38157997E+01 2.40000000E+01 2.04400000E-02 1 
  1 225 1.38157997E+01 2.40000000E+01 2.04400000E-02 1 
  1 226 1.38157997E+01 2.40000000E+01 2.04400000E-02 1 
  1 227 1.38157997E+01 2.40000000E+01 2.04400000E-02 1 
  1 228 1.38157997E+01 2.40000000E+01 2.04400000E-02 1 
  1 229 1.38157997E+01 2.40000000E+01 2.04400000E-02 1 
  1 230 1.38157997E+01 2.40000000E+01 2.04400000E-02 1 
  1 231 1.38157997E+01 2.40000000E+01 2.04400000E-02 1 
  1 232 1.38157997E+01 2.40000000E+01 2.04400000E-02 1 
  1 233 1.38157997E+01 2.40000000E+01 2.04400000E-02 1 
  1 234 1.38157997E+01 2.40000000E+01 2.04400000E-02 1 
  1 235 1.38157997E+01 2.40000000E+01 2.04400000E-02 1 
  1 236 1.38157997E+01 2.40000000E+01 2.04400000E-02 1 
  1 237 1.38157997E+01 2.40000000E+01 2.04400000E-02 1 
  1 238 1.38157997E+01 2.40000000E+01 2.04400000E-02 1 
  1 239 1.38157997E+01 2.40000000E+01 2.04400000E-02 1 
  1 240 1.38157997E+01 2.40000000E+01 2.04400000E-02 1 
  1 241 1.38157997E+01 2.40000000E+01 2.04400000E-02 1 
  1 242 1.38157997E+01 2.40000000E+01 2.04400000E-02 1 
  1 243 1.38157997E+01 2.40000000E+01 2.04400000E-02 1 
  1 244 1.38157997E+01 2.40000000E+01 2.04400000E-02 1 
  1 245 1.38157997E+01 2.40000000E+01 2.04400000E-02 1 
  1 246 1.38157997E+01 2.40000000E+01 2.04400000E-02 1 
  1 247 1.38157997E+01 2.40000000E+01 2.04400000E-02 1 
  1 248 1.38157997E+01 2.40000000E+01 2.04400000E-02 1 
  1 249 1.38157997E+01 2.40000000E+01 2.04400000E-02 1 
  1 250 1.38157997E+01 2.40000000E+01 2.04400000E-02 1 
  1 251 1.38157997E+01 2.40000000E+01 2.04400000E-02 1 
  1 252 1.38157997E+01 2.40000000E+01 2.04400000E-02 1 
  1 253 1.38157997E+01 2.40000000E+01 2.04400000E-02 1 
  1 254 1.38157997E+01 2.40000000E+01 2.04400000E-02 1 
  1 255 1.38157997E+01 2.40000000E+01 2.04400000E-02 1 
  1 256 1.38157997E+01 2.40000000E+01 2.04400000E-02 1 
  1 257 1.38157997E+01 2.40000000E+01 2.04400000E-02 1 
  1 258 1.38157997E+01 2.40000000E+01 2.04400000E-02 1 
  1 259 1.38157997E+01 2.40000000E+01 2.04400000E-02 1 
  1 260 1.38157997E+01 2.40000000E+01 2.04400000E-02 1 
  1 261 1.38157997E+01 2.40000000E+01 2.04400000E-02 1 
  1 262 1.38157997E+01 2.40000000E+01 2.04400000E-02 1 
  1 263 1.38157997E+01 2.40000000E+01 2.04400000E-02 1 
  1 264 1.38157997E+01 2.40000000E+01 2.04400000E-02 1 
  1 265 1.38157997E+01 2.40000000E+01 2.04400000E-02 1 
  1 266 1.38157997E+01 2.40000000E+01 2.04400000E-02 1 
  1 267 1.38157997E+01 2.40000000E+01 2.04400000E-02 1 
  1 268 1.38157997E+01 2.40000000E+01 2.04400000E-02 1 
  1 269 1.38157997E+01 2.40000000E+01 2.04400000E-02 1 
  1 270 1.38157997E+01 2.40000000E+01 2.04400000E-02 1 
  1 271 1.38157997E+01 2.40000000E+01 2.04400000E-02 1 
  1 272 1.38157997E+01 2.40000000E+01 2.04400000E-02 1 
  1 273 1.38157997E+01 2.40000000E+01 2.04400000E-02 1 
  1 274 1.38157997E+01 2.40000000E+01 2.04400000E-02 1 
  1 275 1.38157997E+01 2.40000000E+01 2.04400000E-02 1 
  1 276 1.38157997E+01 2.40000000E+01 2.04400000E-02 1 
  1 277 1.38157997E+01 2.40000000E+01 2.04400000E-02 1 
  1 278 1.38157997E+01 2.40000000E+01 2.04400000E-02 1 
  1 279 1.38157997E+01 2.40000000E+01 2.04400000E-02 1 
  1 280 1.38157997E+01 2.40000000E+01 2.04400000E-02 1 
  1 281 1.38157997E+01 2.40000000E+01 2.04400000E-02 1 
  1 282 1.38157997E+01 2.40000000E+01 2.04400000E-02 1 
  1 283 1.38157997E+01 2.40000000E+01 2.04400000E-02 1 
  1 284 1.38157997E+01 2.40000000E+01 2.04400000E-02 1 
  1 285 1.38157997E+01 2.40000000E+01 2.04400000E-02 1 
  1 286 1.38157997E+01 2.40000000E+01 2.04400000E-02 1 
  1 287 1.38157997E+01 2.40000000E+01 2.04400000E-02 1 
  1 288 1.38157997E+01 2.40000000E+01 2.04400000E-02 1 
  1 289 1.38157997E+01 2.40000000E+01 2.04400000E-02 1 
  1 290 1.38157997E+01 2.40000000E+01 2.04400000E-02 1 
  1 291 1.38157997E+01 2.40000000E+01 2.04400000E-02 1 
  1 292 1.38157997E+01 2.40000000E+01 2.04400000E-02 1 
  1 293 1.38157997E+01 2.40000000E+01 2.04400000E-02 1 
  1 294 1.38157997E+01 2.40000000E+01 2.04400000E-02 1 
  1 295 1.38157997E+01 2.40000000E+01 2.04400000E-02 1 
  1 296 1.38157997E+01 2.40000000E+01 2.04400000E-02 1 
  1 297 1.38157997E+01 2.40000000E+01 2.04400000E-02 1 
  1 298 1.38157997E+01 2.40000000E+01 2.04400000E-02 1 
  1 299 1.38157997E+01 2.40000000E+01 2.04400000E-02 1 
  1 300 1.38157997E+01 2.40000000E+01 2.04400000E-02 1 
  1 301 1.38157997E+01 2.40000000E+01 2.04400000E-02 1 
  1 302 1.38157997E+01 2.40000000E+01 2.04400000E-02 1 
  1 303 1.38157997E+01 2.40000000E+01 2.04400000E-02 1 
  1 304 1.38157997E+01 2.40000000E+01 2.04400000E-02 1 
  1 305 1.38157997E+01 2.40000000E+01 2.04400000E-02 1 
  1 306 1.38157997E+01 2.40000000E+01 2.04400000E-02 1 
  1 307 1.38157997E+01 2.40000000E+01 2.04400000E-02 1 
  1 308 1.38157997E+01 2.40000000E+01 2.04400000E-02 1 
  1 309 1.38157997E+01 2.40000000E+01 2.04400000E-02 1 
  1 310 1.38157997E+01 2.40000000E+01 2.04400000E-02 1 
  1 311 1.38157997E+01 2.40000000E+01 2.04400000E-02 1 
  1 312 1.38157997E+01 2.40000000E+01 2.04400000E-02 1 
  1 313 1.38157997E+01 2.40000000E+01 2.04400000E-02 1 
  1 314 1.38157997E+01 2.40000000E+01 2.04400000E-02 1 
  1 315 1.38157997E+01 2.40000000E+01 2.04400000E-02 1 
  1 316 1.38157997E+01 2.40000000E+01 2.04400000E-02 1 
  1 317 1.38157997E+01 2.40000000E+01 2.04400000E-02 1 
  1 318 1.38157997E+01 2.40000000E+01 2.04400000E-02 1 
  1 319 1.38157997E+01 2.40000000E+01 2.04400000E-02 1 
  1 320 1.38157997E+01 2.40000000E+01 2.04400000E-02 1 
  1 321 1.38157997E+01 2.40000000E+01 2.04400000E-02 1 
  1 322 1.38157997E+01 2.40000000E+01 2.04400000E-02 1 
  1 323 1.38157997E+01 2.40000000E+01 2.04400000E-02 1 
  1 324 1.38157997E+01 2.40000000E+01 2.04400000E-02 1 
  1 325 1.38157997E+01 2.40000000E+01 2.04400000E-02 1 
  1 326 1.38157997E+01 2.40000000E+01 2.04400000E-02 1 
  1 327 1.38157997E+01 2.40000000E+01 2.04400000E-02 1 
  1 328 1.38157997E+01 2.40000000E+01 2.04400000E-02 1 
  1 329 1.38157997E+01 2.40000000E+01 2.04400000E-02 1 
  1 330 1.38157997E+01 2.40000000E+01 2.04400000E-02 1 
  1 331 1.38157997E+01 2.40000000E+01 2.04400000E-02 1 
  1 332 1.38157997E+01 2.40000000E+01 2.04400000E-02 1 
  1 333 1.38157997E+01 2.40000000E+01 2.04400000E-02 1 
  1 334 1.38157997E+01 2.40000000E+01 2.04400000E-02 1 
  1 335 1.38157997E+01 2.40000000E+01 2.04400000E-02 1 
  1 336 1.38157997E+01 2.40000000E+01 2.04400000E-02 1 
  1 337 1.38157997E+01 2.40000000E+01 2.04400000E-02 1 
  1 338 1.38157997E+01 2.40000000E+01 2.04400000E-02 1 
  1 339 1.38157997E+01 2.40000000E+01 2.04400000E-02 1 
  1 340 1.38157997E+01 2.40000000E+01 2.04400000E-02 1 
  1 341 1.38157997E+01 2.40000000E+01 2.04400000E-02 1 
  1 342 1.38157997E+01 2.40000000E+01 2.04400000E-02 1 
  1 343 1.38157997E+01 2.40000000E+01 2.04400000E-02 1 
  1 344 1.38157997E+01 2.40000000E+01 2.04400000E-02 1 
  1 345 1.38157997E+01 2.40000000E+01 2.04400000E-02 1 
  1 346 1.38157997E+01 2.40000000E+01 2.04400000E-02 1 
  1 347 1.38157997E+01 2.40000000E+01 2.04400000E-02 1 
  1 348 1.38157997E+01 2.40000000E+01 2.04400000E-02 1 
  1 349 1.38157997E+01 2.40000000E+01 2.04400000E-02 1 
  1 350 1.38157997E+01 2.40000000E+01 2.04400000E-02 1 
  1 351 1.38157997E+01 2.40000000E+01 2.04400000E-02 1 
  1 352 1.38157997E+01 2.40000000E+01 2.04400000E-02 1 
  1 353 1.38157997E+01 2.40000000E+01 2.04400000E-02 1 
  1 354 1.38157997E+01 2.40000000E+01 2.04400000E-02 1 
  1 355 1.38157997E+01 2.40000000E+01 2.04400000E-02 1 
  1 356 1.38157997E+01 2.40000000E+01 2.04400000E-02 1 
  1 357 1.38157997E+01 2.40000000E+01 2.04400000E-02 1 
  1 358 1.38157997E+01 2.40000000E+01 2.04400000E-02 1 
  1 359 1.38157997E+01 2.40000000E+01 2.04400000E-02 1 
  1 360 1.38157997E+01 2.40000000E+01 2.04400000E-02 1 
  1 361 1.38157997E+01 2.40000000E+01 2.04400000E-02 1 
  1 362 1.38157997E+01 2.40000000E+01 2.04400000E-02 1 
  1 363 1.38157997E+01 2.40000000E+01 2.04400000E-02 1 
  1 364 1.38157997E+01 2.40000000E+01 2.04400000E-02 1 
  1 365 1.38157997E+01 2.40000000E+01 2.04400000E-02 1 
  1 366 1.38157997E+01 2.40000000E+01 2.04400000E-02 1 
  1 367 1.38157997E+01 2.40000000E+01 2.04400000E-02 1 
  1 368 1.38157997E+01 2.40000000E+01 2.04400000E-02 1 
  1 369 1.38157997E+01 2.40000000E+01 2.04400000E-02 1 
  1 370 1.38157997E+01 2.40000000E+01 2.04400000E-02 1 
  1 371 1.38157997E+01 2.40000000E+01 2.04400000E-02 1 
  1 372 1.38157997E+01 2.40000000E+01 2.04400000E-02 1 
  1 373 1.38157997E+01 2.40000000E+01 2.04400000E-02 1 
  1 374 1.38157997E+01 2.40000000E+01 2.04400000E-02 1 
  1 375 1.38157997E+01 2.40000000E+01 2.04400000E-02 1 
  1 376 1.38157997E+01 2.40000000E+01 2.04400000E-02 1 
  1 377 1.38157997E+01 2.40000000E+01 2.04400000E-02 1 
  1 378 1.38157997E+01 2.40000000E+01 2.04400000E-02 1 
  1 379 1.38157997E+01 2.40000000E+01 2.04400000E-02 1 
  1 380 1.38157997E+01 2.40000000E+01 2.04400000E-02 1 
  1 381 1.38157997E+01 2.40000000E+01 2.04400000E-02 1 
  1 382 1.38157997E+01 2.40000000E+01 2.04400000E-02 1 
  1 383 1.38157997E+01 2.40000000E+01 2.04400000E-02 1 
  1 384 1.38157997E+01 2.40000000E+01 2.04400000E-02 1 
  1 385 1.38157997E+01 2.40000000E+01 2.04400000E-02 1 
  1 386 1.38157997E+01 2.40000000E+01 2.04400000E-02 1 
  1 387 1.38157997E+01 2.40000000E+01 2.04400000E-02 1 
  1 388 1.38157997E+01 2.40000000E+01 2.04400000E-02 1 
  1 389 1.38157997E+01 2.40000000E+01 2.04400000E-02 1 
  1 390 1.38157997E+01 2.40000000E+01 2.04400000E-02 1 
  1 391 1.38157997E+01 2.40000000E+01 2.04400000E-02 1 
  1 392 1.38157997E+01 2.40000000E+01 2.04400000E-02 1 
  1 393 1.38157997E+01 2.40000000E+01 2.04400000E-02 1 
  1 394 1.38157997E+01 2.40000000E+01 2.04400000E-02 1 
  1 395 1.38157997E+01 2.40000000E+01 2.04400000E-02 1 
  1 396 1.38157997E+01 2.40000000E+01 2.04400000E-02 1 
  1 397 1.38157997E+01 2.40000000E+01 2.04400000E-02 1 
  1 398 1.38157997E+01 2.40000000E+01 2.04400000E-02 1 
  1 399 1.38157997E+01 2.40000000E+01 2.04400000E-02 1 
  1 400 1.38157997E+01 2.40000000E+01 2.04400000E-02 1 
  1 401 1.38157997E+01 2.40000000E+01 2.04400000E-02 1 
  1 402 1.38157997E+01 2.40000000E+01 2.04400000E-02 1 
  1 403 1.38157997E+01 2.40000000E+01 2.04400000E-02 1 
  1 404 1.38157997E+01 2.40000000E+01 2.04400000E-02 1 
  1 405 1.38157997E+01 2.40000000E+01 2.04400000E-02 1 
  1 406 1.38157997E+01 2.40000000E+01 2.04400000E-02 1 
  1 407 1.38157997E+01 2.40000000E+01 2.04400000E-02 1 
  1 408 1.38157997E+01 2.40000000E+01 2.04400000E-02 1 
  1 409 1.38157997E+01 2.40000000E+01 2.04400000E-02 1 
  1 410 1.38157997E+01 2.40000000E+01 2.04400000E-02 1 
  1 411 1.38157997E+01 2.40000000E+01 2.04400000E-02 1 
  1 412 1.38157997E+01 2.40000000E+01 2.04400000E-02 1 
  1 413 1.38157997E+01 2.40000000E+01 2.04400000E-02 1 
  1 414 1.38157997E+01 2.40000000E+01 2.04400000E-02 1 
  1 415 1.38157997E+01 2.40000000E+01 2.04400000E-02 1 
  1 416 1.38157997E+01 2.40000000E+01 2.04400000E-02 1 
  1 417 1.38157997E+01 2.40000000E+01 2.04400000E-02 1 
  1 418 1.38157997E+01 2.40000000E+01 2.04400000E-02 1 
  1 419 1.38157997E+01 2.40000000E+01 2.04400000E-02 1 
  1 420 1.38157997E+01 2.40000000E+01 2.04400000E-02 1 
  1 421 1.38157997E+01 2.40000000E+01 2.04400000E-02 1 
  1 422 1.38157997E+01 2.40000000E+01 2.04400000E-02 1 
  1 423 1.38157997E+01 2.40000000E+01 2.04400000E-02 1 
  1 424 1.38157997E+01 2.40000000E+01 2.04400000E-02 1 
  1 425 1.38157997E+01 2.40000000E+01 2.04400000E-02 1 
  1 426 1.38157997E+01 2.40000000E+01 2.04400000E-02 1 
  1 427 1.38157997E+01 2.40000000E+01 2.04400000E-02 1 
  1 428 1.38157997E+01 2.40000000E+01 2.04400000E-02 1 
  1 429 1.38157997E+01 2.40000000E+01 2.04400000E-02 1 
  1 430 1.38157997E+01 2.40000000E+01 2.04400000E-02 1 
  1 431 1.38157997E+01 2.40000000E+01 2.04400000E-02 1 
  1 432 1.38157997E+01 2.40000000E+01 2.04400000E-02 1 
  1 433 1.38157997E+01 2.40000000E+01 2.04400000E-02 1 
  1 434 1.38157997E+01 2.40000000E+01 2.04400000E-02 1 
  1 435 1.38157997E+01 2.40000000E+01 2.04400000E-02 1 
  1 436 1.38157997E+01 2.40000000E+01 2.04400000E-02 1 
  1 437 1.38157997E+01 2.40000000E+01 2.04400000E-02 1 
  1 438 1.38157997E+01 2.40000000E+01 2.04400000E-02 1 
  1 439 1.38157997E+01 2.40000000E+01 2.04400000E-02 1 
  1 440 1.38157997E+01 2.40000000E+01 2.04400000E-02 1 
  1 441 1.38157997E+01 2.40000000E+01 2.04400000E-02 1 
  1 442 1.38157997E+01 2.40000000E+01 2.04400000E-02 1 
  1 443 1.38157997E+01 2.40000000E+01 2.04400000E-02 1 
  1 444 1.38157997E+01 2.40000000E+01 2.04400000E-02 1 
  1 445 1.38157997E+01 2.40000000E+01 2.04400000E-02 1 
  1 446 1.38157997E+01 2.40000000E+01 2.04400000E-02 1 
  1 447 1.38157997E+01 2.40000000E+01 2.04400000E-02 1 
  1 448 1.38157997E+01 2.40000000E+01 2.04400000E-02 1 
  1 449 1.38157997E+01 2.40000000E+01 2.04400000E-02 1 
  1 450 1.38157997E+01 2.40000000E+01 2.04400000E-02 1 
  1 451 1.38157997E+01 2.40000000E+01 2.04400000E-02 1 
  1 452 1.38157997E+01 2.40000000E+01 2.04400000E-02 1 
  1 453 1.38157997E+01 2.40000000E+01 2.04400000E-02 1 
  1 454 1.38157997E+01 2.40000000E+01 2.04400000E-02 1 
  1 455 1.38157997E+01 2.40000000E+01 2.04400000E-02 1 
  1 456 1.38157997E+01 2.40000000E+01 2.04400000E-02 1 
  1 457 1.38157997E+01 2.40000000E+01 2.04400000E-02 1 
  1 458 1.38157997E+01 2.40000000E+01 2.04400000E-02 1 
  1 459 1.38157997E+01 2.40000000E+01 2.04400000E-02 1 
  1 460 1.38157997E+01 2.40000000E+01 2.04400000E-02 1 
  1 461 1.38157997E+01 2.40000000E+01 2.04400000E-02 1 
  1 462 1.38157997E+01 2.40000000E+01 2.04400000E-02 1 
  1 463 1.38157997E+01 2.40000000E+01 2.04400000E-02 1 
  1 464 1.38157997E+01 2.40000000E+01 2.04400000E-02 1 
  1 465 1.38157997E+01 2.40000000E+01 2.04400000E-02 1 
  1 466 1.38157997E+01 2.40000000E+01 2.04400000E-02 1 
  1 467 1.38157997E+01 2.40000000E+01 2.04400000E-02 1 
  1 468 1.38157997E+01 2.40000000E+01 2.04400000E-02 1 
  1 469 1.38157997E+01 2.40000000E+01 2.04400000E-02 1 
  1 470 1.38157997E+01 2.40000000E+01 2.04400000E-02 1 
  1 471 1.38157997E+01 2.40000000E+01 2.04400000E-02 1 
  1 472 1.38157997E+01 2.40000000E+01 2.04400000E-02 1 
  1 473 1.38157997E+01 2.40000000E+01 2.04400000E-02 1 
  1 474 1.38157997E+01 2.40000000E+01 2.04400000E-02 1 
  1 475 1.38157997E+01 2.40000000E+01 2.04400000E-02 1 
  1 476 1.38157997E+01 2.40000000E+01 2.04400000E-02 1 
  1 477 1.38157997E+01 2.40000000E+01 2.04400000E-02 1 
  1 478 1.38157997E+01 2.40000000E+01 2.04400000E-02 1 
  1 479 1.38157997E+01 2.40000000E+01 2.04400000E-02 1 
  1 480 1.38157997E+01 2.40000000E+01 2.04400000E-02 1 
  1 481 1.38157997E+01 2.40000000E+01 2.04400000E-02 1 
  1 482 1.38157997E+01 2.40000000E+01 2.04400000E-02 1 
  1 483 1.38157997E+01 2.40000000E+01 2.04400000E-02 1 
  1 484 1.38157997E+01 2.40000000E+01 2.04400000E-02 1 
  1 485 1.38157997E+01 2.40000000E+01 2.04400000E-02 1 
  1 486 1.38157997E+01 2.40000000E+01 2.04400000E-02 1 
  1 487 1.38157997E+01 2.40000000E+01 2.04400000E-02 1 
  1 488 1.38157997E+01 2.40000000E+01 2.04400000E-02 1 
  1 489 1.38157997E+01 2.40000000E+01 2.04400000E-02 1 
  1 490 1.38157997E+01 2.40000000E+01 2.04400000E-02 1 
  1 491 1.38157997E+01 2.40000000E+01 2.04400000E-02 1 
  1 492 1.38157997E+01 2.40000000E+01 2.04400000E-02 1 
  1 493 1.38157997E+01 2.40000000E+01 2.04400000E-02 1 
  1 494 1.38157997E+01 2.40000000E+01 2.04400000E-02 1 
  1 495 1.38157997E+01 2.40000000E+01 2.04400000E-02 1 
  1 496 1.38157997E+01 2.40000000E+01 2.04400000E-02 1 
  1 497 1.38157997E+01 2.40000000E+01 2.04400000E-02 1 
  1 498 1.38157997E+01 2.40000000E+01 2.04400000E-02 1 
  1 499 1.38157997E+01 2.40000000E+01 2.04400000E-02 1 
  1 500 1.38157997E+01 2.40000000E+01 2.04400000E-02 1 
  1 501 1.38157997E+01 2.40000000E+01 2.04400000E-02 1 
  1 502 1.38157997E+01 2.40000000E+01 2.04400000E-02 1 
  1 503 1.38157997E+01 2.40000000E+01 2.04400000E-02 1 
  1 504 1.38157997E+01 2.40000000E+01 2.04400000E-02 1 
  1 505 1.38157997E+01 2.40000000E+01 2.04400000E-02 1 
  1 506 1.38157997E+01 2.40000000E+01 2.04400000E-02 1 
  1 507 1.38157997E+01 2.40000000E+01 2.04400000E-02 1 
  1 508 1.38157997E+01 2.40000000E+01 2.04400000E-02 1 
  1 509 1.38157997E+01 2.40000000E+01 2.04400000E-02 1 
  1 510 1.38157997E+01 2.40000000E+01 2.04400000E-02 1 
  1 511 1.38157997E+01 2.40000000E+01 2.04400000E-02 1 
  1 512 1.38157997E+01 2.40000000E+01 2.04400000E-02 1 
  1 513 1.38157997E+01 2.40000000E+01 2.04400000E-02 1 
  1 514 1.38157997E+01 2.40000000E+01 2.04400000E-02 1 
  1 515 1.38157997E+01 2.40000000E+01 2.04400000E-02 1 
  1 516 1.38157997E+01 2.40000000E+01 2.04400000E-02 1 
  1 517 1.38157997E+01 2.40000000E+01 2.04400000E-02 1 
  1 518 1.38157997E+01 2.40000000E+01 2.04400000E-02 1 
  1 519 1.38157997E+01 2.40000000E+01 2.04400000E-02 1 
  1 520 1.38157997E+01 2.40000000E+01 2.04400000E-02 1 
  1 521 1.38157997E+01 2.40000000E+01 2.04400000E-02 1 
  1 522 1.38157997E+01 2.40000000E+01 2.04400000E-02 1 
  1 523 1.38157997E+01 2.40000000E+01 2.04400000E-02 1 