# File generated by Flopy version 3.9.4 on 10/22/2025 at 13:15:14.
BEGIN OPTIONS
  DENSEREF      62.25000000
END OPTIONS

BEGIN DIMENSIONS
  NRHOSPECIES  2
END DIMENSIONS

BEGIN PACKAGEDATA
  1       1.64000000       0.00000000  trans-tds  tds
  2      -0.01660000      25.00000000  trans-temp  temp
END PACKAGEDATA

