# File generated by Flopy version 3.9.4 on 10/22/2025 at 13:15:12.
BEGIN OPTIONS
END OPTIONS

BEGIN GRIDDATA
  strt  LAYERED
    INTERNAL  FACTOR  1.0
          13.46450000      13.48330000      13.51740000      13.56620000      13.60560000      13.64880000      13.67900000      13.71190000      13.74760000      13.78220000      13.81260000      13.83580000      13.84490000      13.84360000      13.83550000      13.82490000      13.81690000      13.81250000      13.81170000      13.81410000
          13.79140000      13.78410000      13.78590000      13.84260000      13.87140000      13.88320000      13.89980000      13.91980000      13.94190000      13.96190000      13.97060000      13.46800000      13.50560000      13.54570000      13.56770000      13.59260000      13.63810000      13.67860000      13.71230000      13.74820000
          13.78240000      13.81310000      13.83480000      13.84390000      13.84350000      13.83610000      13.82770000      13.82380000      13.82190000      13.82470000      13.83020000      13.83400000      13.81680000      13.87910000      13.88820000      13.89560000      13.90920000      13.92600000      13.94980000      13.97610000
          13.99990000      14.01510000      13.49730000      13.52580000      13.54360000      13.56240000      13.58560000      13.61370000      13.66900000      13.70610000      13.74100000      13.77510000      13.80460000      13.82440000      13.83450000      13.83610000      13.83220000      13.82890000      13.82850000      13.83200000
          13.83900000      13.84760000      13.86520000      13.89160000      13.90730000      13.91100000      13.91790000      13.92850000      13.94670000      13.96990000      13.99780000      14.02530000      14.04120000      13.51110000      13.52450000      13.53750000      13.55460000      13.57510000      13.60070000      13.63270000
          13.69370000      13.72870000      13.76220000      13.79000000      13.80940000      13.82190000      13.82620000      13.82790000      13.83070000      13.83620000      13.84460000      13.85610000      13.88120000      13.89970000      13.90740000      13.92040000      13.93310000      13.93670000      13.94440000      13.95830000
          13.97940000      14.00360000      14.02870000      14.04600000      13.51090000      13.51930000      13.52880000      13.54150000      13.56040000      13.58520000      13.61600000      13.65680000      13.71300000      13.74620000      13.77350000      13.79450000      13.80930000      13.81820000      13.82630000      13.83570000
          13.84750000      13.86280000      13.89510000      13.91220000      13.92210000      13.92950000      13.93390000      13.94750000      13.95510000      13.95840000      13.96620000      13.98010000      13.99950000      14.01860000      14.03010000      13.50790000      13.51080000      13.51560000      13.52580000      13.54230000
          13.56690000      13.59760000      13.63320000      13.68220000      13.73020000      13.75900000      13.78220000      13.80000000      13.81440000      13.82920000      13.84550000      13.86940000      13.90380000      13.92260000      13.93840000      13.94930000      13.95500000      13.95650000      13.95560000      13.96910000
          13.97060000      13.97250000      13.97930000      13.98950000      14.00030000      14.00610000      13.50210000      13.50070000      13.50170000      13.50850000      13.52460000      13.54890000      13.58070000      13.61680000      13.65340000      13.70860000      13.74710000      13.77320000      13.79510000      13.81530000
          13.83660000      13.86920000      13.90370000      13.92830000      13.95190000      13.97130000      13.98360000      13.98740000      13.98310000      13.97700000      13.97180000      13.98300000      13.97820000      13.97760000      13.98000000      13.98240000      13.98150000      13.49610000      13.49130000      13.48860000
          13.49400000      13.50970000      13.53470000      13.56780000      13.60440000      13.64050000      13.67570000      13.73900000      13.76800000      13.79410000      13.81960000      13.86090000      13.89480000      13.92440000      13.95590000      13.98530000      14.00820000      14.02170000      14.02200000      14.01530000
          14.00080000      13.98600000      13.98010000      13.98630000      13.97780000      13.97270000      13.96850000      13.96170000      13.49340000      13.48650000      13.48210000      13.48690000      13.50220000      13.52770000      13.56150000      13.59700000      13.63350000      13.66840000      13.70310000      13.76620000
          13.79880000      13.84390000      13.87530000      13.90820000      13.94510000      13.98390000      14.02010000      14.04830000      14.06260000      14.06120000      14.04700000      14.02590000      14.00320000      13.98340000      13.98160000      13.98230000      13.97070000      13.95880000      13.94560000      13.49450000
          13.48780000      13.48450000      13.48910000      13.50420000      13.52980000      13.56190000      13.59760000      13.63230000      13.66630000      13.69940000      13.74560000      13.81590000      13.84660000      13.88040000      13.91870000      13.96150000      14.00630000      14.04890000      14.08190000      14.09880000
          14.09580000      14.07630000      14.04790000      14.01820000      13.99230000      13.97090000      13.97660000      13.97200000      13.95570000      13.93640000      13.50020000      13.49540000      13.49480000      13.50060000      13.51520000      13.53980000      13.57040000      13.60320000      13.63670000      13.66870000
          13.70490000      13.73960000      13.79430000      13.84570000      13.88190000      13.92300000      13.96890000      14.01810000      14.06560000      14.10170000      14.11940000      14.11520000      14.09290000      14.06140000      14.02820000      13.99910000      13.97460000      13.95410000      13.97150000      13.95600000
          13.93210000      13.50810000      13.50760000      13.50950000      13.51690000      13.53260000      13.55570000      13.58400000      13.61450000      13.64540000      13.67890000      13.70780000      13.73610000      13.76620000      13.83260000      13.87700000      13.91870000      13.96590000      14.01750000      14.06520000
          14.10160000      14.11930000      14.11510000      14.09310000      14.06190000      14.02970000      14.00120000      13.97720000      13.95640000      13.94470000      13.96210000      13.95300000      13.51690000      13.52110000      13.52680000      13.53680000      13.55280000      13.57510000      13.60140000      13.62990000
          13.65920000      13.68480000      13.70860000      13.73290000      13.75930000      13.79100000      13.86610000      13.90690000      13.95300000      14.00160000      14.04670000      14.08130000      14.09830000      14.09580000      14.07710000      14.05040000      14.02320000      13.99970000      13.97950000      13.96100000
          13.94070000      14.00200000      14.13730000      13.52450000      13.53330000      13.54270000      13.55580000      13.57350000      13.59540000      13.62020000      13.64600000      13.67010000      13.69170000      13.71140000      13.73030000      13.75170000      13.77790000      13.81580000      13.88260000      13.90290000
          13.86340000      13.89110000      13.92970000      13.97400000      14.01500000      14.04620000      14.06260000      14.06310000      14.05110000      14.03290000      14.01430000      13.99810000      13.98420000      13.97120000      14.05910000      14.12660000      14.13560000      13.53130000      13.54390000      13.55740000
          13.57300000      13.59210000      13.61270000      13.63620000      13.66040000      13.68250000      13.70100000      13.71600000      13.72940000      13.74460000      13.76410000      13.78860000      13.80510000      13.77950000      13.79430000      13.83440000      13.87260000      13.88660000      13.85720000      13.87760000
          13.80950000      13.82180000      13.80340000      13.81120000      13.81540000      13.80810000      13.81210000      13.81420000      13.81050000      13.81270000      13.84070000      13.85090000      13.83310000      13.84320000      13.86240000      13.82480000      13.82980000      13.82100000      13.82600000      13.83560000
          13.81690000      13.81940000      13.81540000      13.81740000      13.82190000      13.82440000      13.82000000      13.82250000      13.81460000      13.81560000      13.81660000      13.81520000      13.81570000      13.81620000      13.81550000      13.81580000      13.81380000      13.81480000      13.81530000      13.81440000
          13.81490000      13.81790000      13.81920000      13.81690000      13.81820000      13.82050000      13.81600000      13.81850000      13.82730000      13.83220000      13.82320000      13.82820000      13.84570000      13.85560000      13.83760000      13.84750000      13.89810000      13.91800000      13.88230000      13.89180000
          13.86650000      13.88400000      13.90230000      13.93940000      13.97510000      14.00330000      14.01980000      14.02460000      14.02050000      14.01270000      14.00520000      13.99940000      13.99440000      14.12760000      14.16400000      14.15410000      14.13300000      13.53740000      13.55230000      13.56830000
          13.58500000      13.60290000      13.62590000      13.65040000      13.67450000      13.69590000      13.71300000      13.72420000      13.73190000      13.73970000      13.75190000      13.77040000      13.78330000      13.76210000      13.77290000      13.79720000      13.80510000      13.80900000      13.81110000      13.80740000
          13.80940000      13.80190000      13.80590000      13.79080000      13.79880000      13.81300000      13.81400000      13.81220000      13.81320000      13.81510000      13.81140000      13.81340000      13.81970000      13.80980000      13.81390000      13.83060000      13.80680000      13.81480000      13.78530000      13.80040000
          13.85240000      13.88560000      13.81910000      13.85800000      13.90270000      13.93410000      13.96010000      13.97770000      13.98790000      13.99330000      13.99700000      14.00190000      14.04460000      14.18050000      14.18990000      14.19250000      14.18480000      14.16870000      13.55020000      13.55910000
          13.57360000      13.58950000      13.61110000      13.63540000      13.66160000      13.68780000      13.71030000      13.72660000      13.73560000      13.73790000      13.73870000      13.74320000      13.75440000      13.77370000      13.79980000      13.86260000      13.89520000      13.91980000      13.94060000      13.95670000
          13.97180000      13.98790000      14.07940000      14.18700000      14.20480000      14.21760000      14.22320000      14.22060000      14.20830000      13.56060000      13.56550000      13.57190000      13.59250000      13.61510000      13.64080000      13.66930000      13.69800000      13.72320000      13.74070000      13.74790000
          13.74640000      13.74080000      13.73720000      13.73970000      13.75040000      13.76850000      13.79230000      13.85830000      13.88310000      13.90700000      13.93040000      13.95580000      14.09960000      14.18090000      14.20810000      14.23120000      14.24800000      14.25650000      14.25640000      14.24770000
          13.56690000      13.57630000      13.57850000      13.59050000      13.61450000      13.64110000      13.67080000      13.70140000      13.72920000      13.74880000      13.75650000      13.75250000      13.74200000      13.73080000      13.72570000      13.72770000      13.73820000      13.75550000      13.78710000      13.84690000
          13.87530000      13.92870000      14.10640000      14.15910000      14.19520000      14.22840000      14.25640000      14.27550000      14.28510000      14.28690000      14.28120000      13.57180000      13.57920000      13.58820000      13.58880000      13.60800000      13.63550000      13.66560000      13.69720000      13.72580000
          13.74640000      13.75460000      13.74970000      13.73590000      13.72090000      13.70730000      13.70280000      13.70550000      13.71720000      13.73690000      13.78300000      13.90970000      14.07310000      14.11630000      14.16120000      14.20500000      14.24430000      14.27600000      14.29600000      14.30520000
          14.30690000      14.30220000      13.57440000      13.57960000      13.58620000      13.59470000      13.59770000      13.62310000      13.65200000      13.68200000      13.70990000      13.73040000      13.73860000      13.73400000      13.71960000      13.70000000      13.68320000      13.67080000      13.66750000      13.67380000
          13.69020000      13.79510000      13.97050000      14.04940000      14.10240000      14.15640000      14.20780000      14.25350000      14.28780000      14.30770000      14.31530000      14.31560000      14.31600000      13.57340000      13.57640000      13.58200000      13.59010000      13.59740000      13.60540000      13.63100000
          13.65770000      13.68230000      13.70020000      13.70780000      13.70350000      13.68860000      13.66820000      13.64680000      13.62960000      13.62010000      13.62340000      13.73720000      13.79780000      13.84820000      14.00990000      14.07640000      14.14070000      14.20220000      14.25390000      14.29050000
          14.30980000      14.31720000      14.31790000      14.32280000      13.56900000      13.57000000      13.57390000      13.58080000      13.58990000      13.59500000      13.60590000      13.62740000      13.64670000      13.66010000      13.66520000      13.66010000      13.64530000      13.62330000      13.59830000      13.57580000
          13.59050000      13.67550000      13.69580000      13.73400000      13.78510000      13.85830000      14.03760000      14.11490000      14.18540000      14.24440000      14.28460000      14.30790000      14.31650000      14.32310000      14.33560000      13.55980000      13.56030000      13.56410000      13.57030000      13.57740000
          13.58570000      13.58520000      13.59420000      13.60730000      13.61560000      13.61760000      13.60900000      13.59260000      13.56800000      13.53860000      13.56090000      13.59600000      13.59460000      13.60790000      13.64730000      13.70550000      13.78480000      13.90610000      14.07270000      14.15790000
          14.22700000      14.27600000      14.30600000      14.32260000      14.33890000      14.36070000      13.54700000      13.54850000      13.55390000      13.56010000      13.56600000      13.57080000      13.57420000      13.56320000      13.56810000      13.57180000      13.56860000      13.55570000      13.53550000      13.50660000
          13.54060000      13.53580000      13.50830000      13.49510000      13.50380000      13.53660000      13.60390000      13.69570000      13.80390000      13.97040000      14.12110000      14.20520000      14.26690000      14.30710000      14.33900000      14.36870000      14.40470000      13.53490000      13.53810000      13.54520000
          13.55240000      13.55720000      13.55780000      13.55680000      13.54960000      13.53030000      13.52790000      13.51960000      13.50350000      13.49340000      13.53420000      13.49900000      13.45290000      13.40920000      13.37880000      13.37550000      13.41260000      13.48790000      13.59350000      13.72310000
          13.85380000      14.05720000      14.18330000      14.26030000      14.31790000      14.36740000      14.41240000      14.46820000      13.52760000      13.53230000      13.54100000      13.54700000      13.54920000      13.54660000      13.54030000      13.53030000      13.51090000      13.48690000      13.47400000      13.49080000
          13.52380000      13.48640000      13.43390000      13.37170000      13.30740000      13.25690000      13.24350000      13.28170000      13.36510000      13.49430000      13.64170000      13.78990000      13.93150000      14.16700000      14.26070000      14.34020000      14.40600000      14.47010000      14.54380000      13.52960000
          13.53340000      13.54110000      13.54570000      13.54390000      13.53510000      13.52300000      13.50810000      13.49050000      13.45890000      13.48880000      13.50990000      13.48330000      13.44090000      13.38020000      13.30570000      13.22180000      13.15480000      13.13200000      13.16600000      13.26200000
          13.41030000      13.57500000      13.74280000      13.90230000      14.04830000      14.27630000      14.37000000      14.45380000      14.53850000      14.66990000      13.54420000      13.54400000      13.54640000      13.54480000      13.53630000      13.52260000      13.50410000      13.48400000      13.46580000      13.50540000
          13.49270000      13.47400000      13.44940000      13.40910000      13.34400000      13.26700000      13.17180000      13.09690000      13.06470000      13.09580000      13.20340000      13.36110000      13.54240000      13.72310000      13.89400000      14.04090000      14.21590000      14.41540000      14.51190000      14.68170000
          14.85560000      13.56470000      13.55900000      13.55370000      13.54420000      13.52710000      13.50470000      13.48020000      13.47250000      13.50460000      13.48850000      13.47110000      13.44510000      13.42580000      13.38940000      13.33680000      13.25970000      13.16790000      13.09390000      13.06270000
          13.09190000      13.20650000      13.36540000      13.55080000      13.74350000      13.91630000      14.07120000      14.20540000      14.42100000      14.68060000      14.83430000      14.93330000
    INTERNAL  FACTOR  1.0
          30.53650000      30.52460000      30.51130000      30.49780000      30.48340000      30.46850000      30.45280000      30.43600000      30.41830000      30.39770000      30.37460000      30.34850000      30.31820000      30.28640000      30.25340000      30.21940000      30.18520000      30.15100000      30.11690000      30.08300000
          30.04930000      30.01640000      29.98500000      29.95500000      29.92510000      29.89520000      29.86480000      29.83330000      29.80010000      29.76450000      29.72460000      30.56390000      30.55080000      30.53710000      30.52200000      30.50710000      30.49190000      30.47620000      30.45980000      30.44200000
          30.42200000      30.40000000      30.37430000      30.34480000      30.31310000      30.28020000      30.24680000      30.21390000      30.18060000      30.14790000      30.11550000      30.08330000      30.05170000      30.02140000      29.99130000      29.96120000      29.93160000      29.90130000      29.87070000      29.83830000
          29.80350000      29.76540000      30.58590000      30.57240000      30.55750000      30.54100000      30.52560000      30.51020000      30.49430000      30.47860000      30.46100000      30.44220000      30.42080000      30.39570000      30.36710000      30.33620000      30.30460000      30.27250000      30.24050000      30.20910000
          30.17790000      30.14680000      30.11640000      30.08580000      30.05570000      30.02550000      29.99530000      29.96490000      29.93490000      29.90410000      29.87260000      29.83890000      29.80180000      30.60210000      30.58830000      30.57190000      30.55610000      30.53980000      30.52350000      30.50820000
          30.49270000      30.47590000      30.45790000      30.43730000      30.41360000      30.38680000      30.35720000      30.32700000      30.29670000      30.26650000      30.23660000      30.20700000      30.17750000      30.14780000      30.11770000      30.08760000      30.05720000      30.02650000      29.99590000      29.96510000
          29.93420000      29.90220000      29.86890000      29.83330000      30.61270000      30.59850000      30.58250000      30.56570000      30.54950000      30.53350000      30.51820000      30.50290000      30.48730000      30.46980000      30.45030000      30.42840000      30.40380000      30.37660000      30.34750000      30.31940000
          30.29140000      30.26340000      30.23560000      30.20720000      30.17800000      30.14800000      30.11770000      30.08690000      30.05580000      30.02440000      29.99270000      29.96110000      29.92880000      29.89500000      29.85910000      30.61850000      30.60410000      30.58790000      30.57180000      30.55540000
          30.54000000      30.52510000      30.51010000      30.49480000      30.47870000      30.46070000      30.44060000      30.41800000      30.39300000      30.36650000      30.34100000      30.31550000      30.28960000      30.26320000      30.23580000      30.20720000      30.17730000      30.14650000      30.11490000      30.08310000
          30.05080000      30.01830000      29.98560000      29.95240000      29.91820000      29.88230000      30.62030000      30.60610000      30.59070000      30.57470000      30.55920000      30.54410000      30.52920000      30.51480000      30.50040000      30.48540000      30.46910000      30.45070000      30.43020000      30.40760000
          30.38420000      30.36090000      30.33850000      30.31490000      30.29000000      30.26370000      30.23570000      30.20570000      30.17430000      30.14200000      30.10890000      30.07560000      30.04220000      30.00850000      29.97440000      29.93930000      29.90310000      30.61970000      30.60600000      30.59110000
          30.57590000      30.56080000      30.54620000      30.53210000      30.51830000      30.50460000      30.49050000      30.47570000      30.45910000      30.44050000      30.42010000      30.39940000      30.37940000      30.35860000      30.33760000      30.31510000      30.29030000      30.26290000      30.23320000      30.20150000
          30.16820000      30.13400000      30.09950000      30.06520000      30.03060000      29.99570000      29.96010000      29.92360000      30.61750000      30.60460000      30.59030000      30.57570000      30.56130000      30.54740000      30.53410000      30.52120000      30.50810000      30.49480000      30.48090000      30.46580000
          30.44910000      30.43080000      30.41270000      30.39440000      30.37630000      30.35750000      30.33710000      30.31400000      30.28770000      30.25850000      30.22670000      30.19290000      30.15810000      30.12300000      30.08790000      30.05280000      30.01770000      29.98160000      29.94470000      30.61440000
          30.60250000      30.58890000      30.57500000      30.56160000      30.54860000      30.53610000      30.52370000      30.51130000      30.49850000      30.48510000      30.47090000      30.45570000      30.43910000      30.42270000      30.40670000      30.39060000      30.37350000      30.35480000      30.33360000      30.30860000
          30.28020000      30.24880000      30.21510000      30.18030000      30.14500000      30.10990000      30.07520000      30.04060000      30.00510000      29.96870000      30.61100000      30.59980000      30.58750000      30.57470000      30.56200000      30.54990000      30.53810000      30.52630000      30.51420000      30.50160000
          30.48840000      30.47450000      30.45980000      30.44440000      30.42980000      30.41530000      30.40060000      30.38520000      30.36830000      30.34840000      30.32480000      30.29760000      30.26700000      30.23420000      30.19990000      30.16540000      30.13100000      30.09730000      30.06390000      30.02990000
          29.99480000      30.60690000      30.59710000      30.58610000      30.57440000      30.56270000      30.55140000      30.54020000      30.52870000      30.51680000      30.50420000      30.49080000      30.47650000      30.46120000      30.44670000      30.43340000      30.42000000      30.40670000      30.39280000      30.37700000
          30.35820000      30.33640000      30.31070000      30.28160000      30.25020000      30.21740000      30.18430000      30.15160000      30.11960000      30.08800000      30.05650000      30.02370000      30.60250000      30.59420000      30.58460000      30.57420000      30.56350000      30.55270000      30.54200000      30.53080000
          30.51900000      30.50610000      30.49210000      30.47710000      30.46120000      30.44670000      30.43370000      30.42130000      30.40890000      30.39580000      30.38090000      30.36370000      30.34310000      30.31930000      30.29240000      30.26330000      30.23310000      30.20270000      30.17260000      30.14320000
          30.11420000      30.08530000      30.05440000      30.59770000      30.59070000      30.58240000      30.57340000      30.56380000      30.55370000      30.54330000      30.53230000      30.52040000      30.50720000      30.49250000      30.47650000      30.46000000      30.44460000      30.43110000      30.42280000      30.41680000
          30.42080000      30.41480000      30.40700000      30.39460000      30.38070000      30.36460000      30.34580000      30.32440000      30.30070000      30.27500000      30.24840000      30.22150000      30.19490000      30.16910000      30.14320000      30.11540000      30.08470000      30.59280000      30.58690000      30.57980000
          30.57180000      30.56310000      30.55390000      30.54380000      30.53290000      30.52090000      30.50730000      30.49180000      30.47440000      30.45690000      30.44070000      30.43110000      30.42440000      30.42840000      30.42160000      30.41820000      30.41450000      30.41150000      30.41290000      30.41000000
          30.41750000      30.41440000      30.41580000      30.41390000      30.41240000      30.41310000      30.41210000      30.41140000      30.41170000      30.41100000      30.41250000      30.41100000      30.41160000      30.41020000      30.40850000      30.41140000      30.41070000      30.41100000      30.41030000      30.40940000
          30.41090000      30.41050000      30.41070000      30.41030000      30.41010000      30.40980000      30.40990000      30.40960000      30.41050000      30.41030000      30.41010000      30.41020000      30.41000000      30.40990000      30.41000000      30.40990000      30.41030000      30.41010000      30.40980000      30.40990000
          30.40970000      30.40990000      30.40970000      30.40980000      30.40960000      30.40930000      30.40950000      30.40910000      30.40910000      30.40830000      30.40860000      30.40790000      30.40790000      30.40630000      30.40690000      30.40540000      30.40630000      30.40050000      30.40550000      30.40250000
          30.40360000      30.40070000      30.39720000      30.38980000      30.37690000      30.36230000      30.34550000      30.32690000      30.30670000      30.28540000      30.26340000      30.24120000      30.21900000      30.19720000      30.17300000      30.14580000      30.11490000      30.58770000      30.58250000      30.57620000
          30.56900000      30.56130000      30.55270000      30.54320000      30.53250000      30.52030000      30.50640000      30.49010000      30.47160000      30.45290000      30.43570000      30.42560000      30.41840000      30.42220000      30.41490000      30.41410000      30.41220000      30.41130000      30.41050000      30.41090000
          30.41000000      30.41140000      30.40970000      30.41230000      30.40900000      30.41010000      30.40960000      30.40980000      30.40940000      30.40890000      30.40920000      30.40840000      30.40750000      30.40810000      30.40650000      30.40470000      30.40580000      30.40270000      30.40770000      30.40120000
          30.39930000      30.39340000      30.39490000      30.38910000      30.38260000      30.37070000      30.35770000      30.34350000      30.32830000      30.31240000      30.29630000      30.27970000      30.26250000      30.24470000      30.22470000      30.20160000      30.17500000      30.14510000      30.58190000      30.57730000
          30.57170000      30.56520000      30.55800000      30.55000000      30.54110000      30.53080000      30.51850000      30.50410000      30.48720000      30.46760000      30.44800000      30.42960000      30.41260000      30.39780000      30.38480000      30.37330000      30.36260000      30.35180000      30.34080000      30.32970000
          30.31890000      30.30800000      30.29710000      30.28430000      30.26910000      30.25060000      30.22870000      30.20360000      30.17520000      30.57570000      30.57130000      30.56580000      30.55980000      30.55300000      30.54560000      30.53720000      30.52720000      30.51510000      30.50020000      30.48250000
          30.46210000      30.44160000      30.42190000      30.40370000      30.38770000      30.37390000      30.36240000      30.35310000      30.34510000      30.33780000      30.33150000      30.32610000      30.32100000      30.31380000      30.30410000      30.29110000      30.27450000      30.25460000      30.23140000      30.20520000
          30.56900000      30.56460000      30.55900000      30.55280000      30.54630000      30.53910000      30.53090000      30.52110000      30.50910000      30.49400000      30.47560000      30.45460000      30.43330000      30.41230000      30.39330000      30.37600000      30.36160000      30.35030000      30.34240000      30.33710000