# File generated by Flopy version 3.9.4 on 10/22/2025 at 13:15:12.
BEGIN OPTIONS
  LIST  flow_output/model.lst
  PRINT_INPUT
  PRINT_FLOWS
  SAVE_FLOWS
END OPTIONS

BEGIN PACKAGES
  disv6  flow.disv  disv
  npf6  flow.npf  npf
  ic6  flow.ic  ic
  oc6  flow.oc  oc
  wel6  flow.wel  wel
  sto6  flow.sto  sto
  chd6  flow.chd  chd
  ghb6  flow.ghb  ghb
  buy6  flow.buy  buy
END PACKAGES

