# File generated by Flopy version 3.9.4 on 10/22/2025 at 13:15:12.
BEGIN OPTIONS
  BUDGET  FILEOUT  flow_output/flow.cbc
  HEAD  FILEOUT  flow_output/flow.hds
END OPTIONS

BEGIN PERIOD  1
  SAVE  budget  all
  SAVE  head  all
  PRINT  budget  all
  PRINT  head  all
END PERIOD  1

