# File generated by Flopy version 3.9.4 on 10/22/2025 at 13:15:14.
BEGIN OPTIONS
  AUXILIARY  tds  temp  cellgrp
  BOUNDNAMES
  PRINT_INPUT
  PRINT_FLOWS
  SAVE_FLOWS
END OPTIONS

BEGIN DIMENSIONS
  MAXBOUND  378
END DIMENSIONS

BEGIN PERIOD  1
  2 1 3.04960323E+01 8.38072935E+05 2.04300000E-02 2.65000000E+01 1 
  2 32 3.04989841E+01 1.55846226E+06 2.04300000E-02 2.65000000E+01 1 
  2 63 3.05028232E+01 1.55846226E+06 2.04300000E-02 2.65000000E+01 1 
  2 94 3.05066623E+01 1.55846226E+06 2.04300000E-02 2.65000000E+01 1 
  2 125 3.05105014E+01 1.55846226E+06 2.04300000E-02 2.65000000E+01 1 
  2 156 3.05143405E+01 1.55846226E+06 2.04300000E-02 2.65000000E+01 1 
  2 187 3.05181796E+01 1.55846226E+06 2.04300000E-02 2.65000000E+01 1 
  2 218 3.05220187E+01 1.55846226E+06 2.04300000E-02 2.65000000E+01 1 
  2 249 3.05258578E+01 1.55846226E+06 2.04300000E-02 2.65000000E+01 1 
  2 280 3.05296970E+01 1.55846226E+06 2.04300000E-02 2.65000000E+01 1 
  2 311 3.05335361E+01 1.55846226E+06 2.04300000E-02 2.65000000E+01 1 
  2 342 3.05373752E+01 1.55846226E+06 2.04300000E-02 2.65000000E+01 1 
  2 373 3.05412143E+01 1.55846226E+06 2.04300000E-02 2.65000000E+01 1 
  2 404 3.05450534E+01 1.55846226E+06 2.04300000E-02 2.65000000E+01 1 
  2 438 3.05480319E+01 8.59767421E+05 2.04300000E-02 2.65000000E+01 1 
  2 31 2.96889728E+01 9.00786692E+05 2.04300000E-02 2.65000000E+01 2 
  2 30 2.97158190E+01 1.54639773E+06 2.04300000E-02 2.65000000E+01 2 
  2 29 2.97497477E+01 1.54639773E+06 2.04300000E-02 2.65000000E+01 2 
  2 28 2.97836764E+01 1.54639773E+06 2.04300000E-02 2.65000000E+01 2 
  2 27 2.98176051E+01 1.54639773E+06 2.04300000E-02 2.65000000E+01 2 
  2 26 2.98515339E+01 1.54639773E+06 2.04300000E-02 2.65000000E+01 2 
  2 25 2.98854626E+01 1.54639773E+06 2.04300000E-02 2.65000000E+01 2 
  2 24 2.99193913E+01 1.54639773E+06 2.04300000E-02 2.65000000E+01 2 
  2 23 2.99533200E+01 1.54639773E+06 2.04300000E-02 2.65000000E+01 2 
  2 22 2.99872487E+01 1.54639773E+06 2.04300000E-02 2.65000000E+01 2 
  2 21 3.00211775E+01 1.54639773E+06 2.04300000E-02 2.65000000E+01 2 
  2 20 3.00551062E+01 1.54639773E+06 2.04300000E-02 2.65000000E+01 2 
  2 19 3.00890349E+01 1.54639773E+06 2.04300000E-02 2.65000000E+01 2 
  2 18 3.01229636E+01 1.54639773E+06 2.04300000E-02 2.65000000E+01 2 
  2 17 3.01568924E+01 1.54639773E+06 2.04300000E-02 2.65000000E+01 2 
  2 16 3.01830647E+01 8.39362119E+05 2.04300000E-02 2.65000000E+01 2 
  2 1032 3.05758394E+01 7.93002981E+05 2.04300000E-02 2.65000000E+01 3 
  2 1001 3.05500235E+01 1.55847036E+06 2.04300000E-02 2.65000000E+01 3 
  2 970 3.05158039E+01 1.55847036E+06 2.04300000E-02 2.65000000E+01 3 
  2 939 3.04815843E+01 1.55847036E+06 2.04300000E-02 2.65000000E+01 3 
  2 908 3.04473646E+01 1.55847036E+06 2.04300000E-02 2.65000000E+01 3 
  2 877 3.04131450E+01 1.55847036E+06 2.04300000E-02 2.65000000E+01 3 
  2 846 3.03789254E+01 1.55847036E+06 2.04300000E-02 2.65000000E+01 3 
  2 815 3.03447057E+01 1.55847036E+06 2.04300000E-02 2.65000000E+01 3 
  2 784 3.03104861E+01 1.55847036E+06 2.04300000E-02 2.65000000E+01 3 
  2 753 3.02762665E+01 1.55847036E+06 2.04300000E-02 2.65000000E+01 3 
  2 722 3.02420468E+01 1.55847036E+06 2.04300000E-02 2.65000000E+01 3 
  2 691 3.02078272E+01 1.55847036E+06 2.04300000E-02 2.65000000E+01 3 
  2 660 3.01736076E+01 1.55847036E+06 2.04300000E-02 2.65000000E+01 3 
  2 629 3.01393879E+01 1.55847036E+06 2.04300000E-02 2.65000000E+01 3 
  2 598 3.01051683E+01 1.55847036E+06 2.04300000E-02 2.65000000E+01 3 
  2 537 3.00803929E+01 6.98231069E+05 2.04300000E-02 2.65000000E+01 3 
  2 1002 3.04566618E+01 9.34462350E+05 2.04300000E-02 2.65000000E+01 4 
  2 1003 3.04393524E+01 1.54637304E+06 2.04300000E-02 2.65000000E+01 4 
  2 1004 3.04177736E+01 1.54637304E+06 2.04300000E-02 2.65000000E+01 4 
  2 1005 3.03961947E+01 1.54637304E+06 2.04300000E-02 2.65000000E+01 4 
  2 1006 3.03746159E+01 1.54637304E+06 2.04300000E-02 2.65000000E+01 4 
  2 1007 3.03530370E+01 1.54637304E+06 2.04300000E-02 2.65000000E+01 4 
  2 1008 3.03314582E+01 1.54637304E+06 2.04300000E-02 2.65000000E+01 4 
  2 1009 3.03098793E+01 1.54637304E+06 2.04300000E-02 2.65000000E+01 4 
  2 1010 3.02883005E+01 1.54637304E+06 2.04300000E-02 2.65000000E+01 4 
  2 1011 3.02667216E+01 1.54637304E+06 2.04300000E-02 2.65000000E+01 4 
  2 1012 3.02451428E+01 1.54637304E+06 2.04300000E-02 2.65000000E+01 4 
  2 1013 3.02235639E+01 1.54637304E+06 2.04300000E-02 2.65000000E+01 4 
  2 1014 3.02019851E+01 1.54637304E+06 2.04300000E-02 2.65000000E+01 4 
  2 1015 3.01804062E+01 1.54637304E+06 2.04300000E-02 2.65000000E+01 4 
  2 1016 3.01588274E+01 1.54637304E+06 2.04300000E-02 2.65000000E+01 4 
  2 1017 3.01431099E+01 7.06303682E+05 2.04300000E-02 2.65000000E+01 4 
  2 438 3.05477995E+01 6.98694840E+05 2.04300000E-02 2.65000000E+01 5 
  2 538 3.05436276E+01 1.55846226E+06 2.04300000E-02 2.65000000E+01 5 
  2 599 3.05378667E+01 1.55846226E+06 2.04300000E-02 2.65000000E+01 5 
  2 630 3.05321057E+01 1.55846226E+06 2.04300000E-02 2.65000000E+01 5 
  2 661 3.05263447E+01 1.55846226E+06 2.04300000E-02 2.65000000E+01 5 
  2 692 3.05205837E+01 1.55846226E+06 2.04300000E-02 2.65000000E+01 5 
  2 723 3.05148228E+01 1.55846226E+06 2.04300000E-02 2.65000000E+01 5 
  2 754 3.05090618E+01 1.55846226E+06 2.04300000E-02 2.65000000E+01 5 
  2 785 3.05033008E+01 1.55846226E+06 2.04300000E-02 2.65000000E+01 5 
  2 816 3.04975398E+01 1.55846226E+06 2.04300000E-02 2.65000000E+01 5 
  2 847 3.04917788E+01 1.55846226E+06 2.04300000E-02 2.65000000E+01 5 
  2 878 3.04860179E+01 1.55846226E+06 2.04300000E-02 2.65000000E+01 5 
  2 909 3.04802569E+01 1.55846226E+06 2.04300000E-02 2.65000000E+01 5 
  2 940 3.04744959E+01 1.55846226E+06 2.04300000E-02 2.65000000E+01 5 
  2 971 3.04687349E+01 1.55846226E+06 2.04300000E-02 2.65000000E+01 5 
  2 1002 3.04645181E+01 7.22998547E+05 2.04300000E-02 2.65000000E+01 5 
  2 16 3.01968943E+01 7.07035611E+05 2.04300000E-02 2.65000000E+01 6 
  2 15 3.02116241E+01 1.54639773E+06 2.04300000E-02 2.65000000E+01 6 
  2 14 3.02318405E+01 1.54639773E+06 2.04300000E-02 2.65000000E+01 6 
  2 13 3.02520569E+01 1.54639773E+06 2.04300000E-02 2.65000000E+01 6 
  2 12 3.02722733E+01 1.54639773E+06 2.04300000E-02 2.65000000E+01 6 
  2 11 3.02924897E+01 1.54639773E+06 2.04300000E-02 2.65000000E+01 6 
  2 10 3.03127060E+01 1.54639773E+06 2.04300000E-02 2.65000000E+01 6 
  2 9 3.03329224E+01 1.54639773E+06 2.04300000E-02 2.65000000E+01 6 
  2 8 3.03531388E+01 1.54639773E+06 2.04300000E-02 2.65000000E+01 6 
  2 7 3.03733552E+01 1.54639773E+06 2.04300000E-02 2.65000000E+01 6 
  2 6 3.03935716E+01 1.54639773E+06 2.04300000E-02 2.65000000E+01 6 
  2 5 3.04137879E+01 1.54639773E+06 2.04300000E-02 2.65000000E+01 6 
  2 4 3.04340043E+01 1.54639773E+06 2.04300000E-02 2.65000000E+01 6 
  2 3 3.04542207E+01 1.54639773E+06 2.04300000E-02 2.65000000E+01 6 
  2 2 3.04744371E+01 1.54639773E+06 2.04300000E-02 2.65000000E+01 6 
  2 1 3.04897726E+01 7.99706562E+05 2.04300000E-02 2.65000000E+01 6 
  2 537 3.00651112E+01 8.60239293E+05 2.04300000E-02 2.65000000E+01 7 
  2 437 3.00436972E+01 1.55847036E+06 2.04300000E-02 2.65000000E+01 7 
  2 403 3.00161014E+01 1.55847036E+06 2.04300000E-02 2.65000000E+01 7 
  2 372 2.99885057E+01 1.55847036E+06 2.04300000E-02 2.65000000E+01 7 
  2 341 2.99609099E+01 1.55847036E+06 2.04300000E-02 2.65000000E+01 7 
  2 310 2.99333142E+01 1.55847036E+06 2.04300000E-02 2.65000000E+01 7 
  2 279 2.99057184E+01 1.55847036E+06 2.04300000E-02 2.65000000E+01 7 
  2 248 2.98781227E+01 1.55847036E+06 2.04300000E-02 2.65000000E+01 7 
  2 217 2.98505269E+01 1.55847036E+06 2.04300000E-02 2.65000000E+01 7 
  2 186 2.98229312E+01 1.55847036E+06 2.04300000E-02 2.65000000E+01 7 
  2 155 2.97953354E+01 1.55847036E+06 2.04300000E-02 2.65000000E+01 7 
  2 124 2.97677397E+01 1.55847036E+06 2.04300000E-02 2.65000000E+01 7 
  2 93 2.97401440E+01 1.55847036E+06 2.04300000E-02 2.65000000E+01 7 
  2 62 2.97125482E+01 1.55847036E+06 2.04300000E-02 2.65000000E+01 7 
  2 31 2.96889206E+01 1.11026604E+06 2.04300000E-02 2.65000000E+01 7 
  2 1017 3.01462667E+01 8.40069362E+05 2.04300000E-02 2.65000000E+01 8 
  2 1018 3.01692339E+01 1.54637304E+06 2.04300000E-02 2.65000000E+01 8 
  2 1019 3.01989985E+01 1.54637304E+06 2.04300000E-02 2.65000000E+01 8 
  2 1020 3.02287632E+01 1.54637304E+06 2.04300000E-02 2.65000000E+01 8 
  2 1021 3.02585279E+01 1.54637304E+06 2.04300000E-02 2.65000000E+01 8 
  2 1022 3.02882926E+01 1.54637304E+06 2.04300000E-02 2.65000000E+01 8 
  2 1023 3.03180572E+01 1.54637304E+06 2.04300000E-02 2.65000000E+01 8 
  2 1024 3.03478219E+01 1.54637304E+06 2.04300000E-02 2.65000000E+01 8 
  2 1025 3.03775866E+01 1.54637304E+06 2.04300000E-02 2.65000000E+01 8 
  2 1026 3.04073512E+01 1.54637304E+06 2.04300000E-02 2.65000000E+01 8 
  2 1027 3.04371159E+01 1.54637304E+06 2.04300000E-02 2.65000000E+01 8 
  2 1028 3.04668806E+01 1.54637304E+06 2.04300000E-02 2.65000000E+01 8 
  2 1029 3.04966453E+01 1.54637304E+06 2.04300000E-02 2.65000000E+01 8 
  2 1030 3.05264099E+01 1.54637304E+06 2.04300000E-02 2.65000000E+01 8 
  2 1031 3.05561746E+01 1.54637304E+06 2.04300000E-02 2.65000000E+01 8 
  2 1032 3.05778012E+01 7.00772085E+05 2.04300000E-02 2.65000000E+01 8 
  3 1 4.75111546E+01 8.38072935E+05 2.40000000E-02 2.55000000E+01 9 
  3 32 4.75186644E+01 1.55846226E+06 2.40000000E-02 2.55000000E+01 9 
  3 63 4.75284316E+01 1.55846226E+06 2.40000000E-02 2.55000000E+01 9 
  3 94 4.75381987E+01 1.55846226E+06 2.40000000E-02 2.55000000E+01 9 
  3 125 4.75479659E+01 1.55846226E+06 2.40000000E-02 2.55000000E+01 9 
  3 156 4.75577330E+01 1.55846226E+06 2.40000000E-02 2.55000000E+01 9 
  3 187 4.75675002E+01 1.55846226E+06 2.40000000E-02 2.55000000E+01 9 
  3 218 4.75772674E+01 1.55846226E+06 2.40000000E-02 2.55000000E+01 9 
  3 249 4.75870345E+01 1.55846226E+06 2.40000000E-02 2.55000000E+01 9 
  3 280 4.75968017E+01 1.55846226E+06 2.40000000E-02 2.55000000E+01 9 
  3 311 4.76065689E+01 1.55846226E+06 2.40000000E-02 2.55000000E+01 9 
  3 342 4.76163360E+01 1.55846226E+06 2.40000000E-02 2.55000000E+01 9 
  3 373 4.76261032E+01 1.55846226E+06 2.40000000E-02 2.55000000E+01 9 
  3 404 4.76358704E+01 1.55846226E+06 2.40000000E-02 2.55000000E+01 9 
  3 438 4.76434481E+01 8.59767421E+05 2.40000000E-02 2.55000000E+01 9 
  3 31 4.76120499E+01 9.00786692E+05 2.40000000E-02 2.55000000E+01 10 
  3 30 4.76073391E+01 1.54639773E+06 2.40000000E-02 2.55000000E+01 10 
  3 29 4.76013854E+01 1.54639773E+06 2.40000000E-02 2.55000000E+01 10 
  3 28 4.75954318E+01 1.54639773E+06 2.40000000E-02 2.55000000E+01 10 
  3 27 4.75894782E+01 1.54639773E+06 2.40000000E-02 2.55000000E+01 10 
  3 26 4.75835245E+01 1.54639773E+06 2.40000000E-02 2.55000000E+01 10 
  3 25 4.75775709E+01 1.54639773E+06 2.40000000E-02 2.55000000E+01 10 
  3 24 4.75716173E+01 1.54639773E+06 2.40000000E-02 2.55000000E+01 10 
  3 23 4.75656636E+01 1.54639773E+06 2.40000000E-02 2.55000000E+01 10 
  3 22 4.75597100E+01 1.54639773E+06 2.40000000E-02 2.55000000E+01 10 
  3 21 4.75537564E+01 1.54639773E+06 2.40000000E-02 2.55000000E+01 10 
  3 20 4.75478028E+01 1.54639773E+06 2.40000000E-02 2.55000000E+01 10 
  3 19 4.75418491E+01 1.54639773E+06 2.40000000E-02 2.55000000E+01 10 
  3 18 4.75358955E+01 1.54639773E+06 2.40000000E-02 2.55000000E+01 10 
  3 17 4.75299419E+01 1.54639773E+06 2.40000000E-02 2.55000000E+01 10 
  3 16 4.75253493E+01 8.39362119E+05 2.40000000E-02 2.55000000E+01 10 
  3 1032 4.78886466E+01 7.93002981E+05 2.40000000E-02 2.55000000E+01 11 
  3 1001 4.78814540E+01 1.55847036E+06 2.40000000E-02 2.55000000E+01 11 
  3 970 4.78719200E+01 1.55847036E+06 2.40000000E-02 2.55000000E+01 11 
  3 939 4.78623861E+01 1.55847036E+06 2.40000000E-02 2.55000000E+01 11 
  3 908 4.78528521E+01 1.55847036E+06 2.40000000E-02 2.55000000E+01 11 
  3 877 4.78433181E+01 1.55847036E+06 2.40000000E-02 2.55000000E+01 11 
  3 846 4.78337841E+01 1.55847036E+06 2.40000000E-02 2.55000000E+01 11 
  3 815 4.78242502E+01 1.55847036E+06 2.40000000E-02 2.55000000E+01 11 
  3 784 4.78147162E+01 1.55847036E+06 2.40000000E-02 2.55000000E+01 11 
  3 753 4.78051822E+01 1.55847036E+06 2.40000000E-02 2.55000000E+01 11 
  3 722 4.77956483E+01 1.55847036E+06 2.40000000E-02 2.55000000E+01 11 
  3 691 4.77861143E+01 1.55847036E+06 2.40000000E-02 2.55000000E+01 11 
  3 660 4.77765803E+01 1.55847036E+06 2.40000000E-02 2.55000000E+01 11 
  3 629 4.77670463E+01 1.55847036E+06 2.40000000E-02 2.55000000E+01 11 
  3 598 4.77575124E+01 1.55847036E+06 2.40000000E-02 2.55000000E+01 11 
  3 537 4.77506097E+01 6.98231069E+05 2.40000000E-02 2.55000000E+01 11 
  3 1002 4.78075842E+01 9.34462350E+05 2.40000000E-02 2.55000000E+01 12 
  3 1003 4.78091657E+01 1.54637304E+06 2.40000000E-02 2.55000000E+01 12 
  3 1004 4.78111373E+01 1.54637304E+06 2.40000000E-02 2.55000000E+01 12 
  3 1005 4.78131089E+01 1.54637304E+06 2.40000000E-02 2.55000000E+01 12 
  3 1006 4.78150805E+01 1.54637304E+06 2.40000000E-02 2.55000000E+01 12 
  3 1007 4.78170521E+01 1.54637304E+06 2.40000000E-02 2.55000000E+01 12 
  3 1008 4.78190237E+01 1.54637304E+06 2.40000000E-02 2.55000000E+01 12 
  3 1009 4.78209953E+01 1.54637304E+06 2.40000000E-02 2.55000000E+01 12 
  3 1010 4.78229669E+01 1.54637304E+06 2.40000000E-02 2.55000000E+01 12 
  3 1011 4.78249385E+01 1.54637304E+06 2.40000000E-02 2.55000000E+01 12 
  3 1012 4.78269102E+01 1.54637304E+06 2.40000000E-02 2.55000000E+01 12 
  3 1013 4.78288818E+01 1.54637304E+06 2.40000000E-02 2.55000000E+01 12 
  3 1014 4.78308534E+01 1.54637304E+06 2.40000000E-02 2.55000000E+01 12 
  3 1015 4.78328250E+01 1.54637304E+06 2.40000000E-02 2.55000000E+01 12 
  3 1016 4.78347966E+01 1.54637304E+06 2.40000000E-02 2.55000000E+01 12 
  3 1017 4.78362327E+01 7.06303682E+05 2.40000000E-02 2.55000000E+01 12 
  3 438 4.76485601E+01 6.98694840E+05 2.40000000E-02 2.55000000E+01 13 
  3 538 4.76563711E+01 1.55846226E+06 2.40000000E-02 2.55000000E+01 13 
  3 599 4.76671572E+01 1.55846226E+06 2.40000000E-02 2.55000000E+01 13 
  3 630 4.76779434E+01 1.55846226E+06 2.40000000E-02 2.55000000E+01 13 
  3 661 4.76887296E+01 1.55846226E+06 2.40000000E-02 2.55000000E+01 13 
  3 692 4.76995158E+01 1.55846226E+06 2.40000000E-02 2.55000000E+01 13 
  3 723 4.77103020E+01 1.55846226E+06 2.40000000E-02 2.55000000E+01 13 
  3 754 4.77210882E+01 1.55846226E+06 2.40000000E-02 2.55000000E+01 13 
  3 785 4.77318743E+01 1.55846226E+06 2.40000000E-02 2.55000000E+01 13 
  3 816 4.77426605E+01 1.55846226E+06 2.40000000E-02 2.55000000E+01 13 
  3 847 4.77534467E+01 1.55846226E+06 2.40000000E-02 2.55000000E+01 13 
  3 878 4.77642329E+01 1.55846226E+06 2.40000000E-02 2.55000000E+01 13 
  3 909 4.77750191E+01 1.55846226E+06 2.40000000E-02 2.55000000E+01 13 
  3 940 4.77858053E+01 1.55846226E+06 2.40000000E-02 2.55000000E+01 13 
  3 971 4.77965915E+01 1.55846226E+06 2.40000000E-02 2.55000000E+01 13 
  3 1002 4.78044865E+01 7.22998547E+05 2.40000000E-02 2.55000000E+01 13 
  3 16 4.75235014E+01 7.07035611E+05 2.40000000E-02 2.55000000E+01 14 
  3 15 4.75227615E+01 1.54639773E+06 2.40000000E-02 2.55000000E+01 14 
  3 14 4.75217461E+01 1.54639773E+06 2.40000000E-02 2.55000000E+01 14 
  3 13 4.75207307E+01 1.54639773E+06 2.40000000E-02 2.55000000E+01 14 
  3 12 4.75197153E+01 1.54639773E+06 2.40000000E-02 2.55000000E+01 14 
  3 11 4.75186999E+01 1.54639773E+06 2.40000000E-02 2.55000000E+01 14 
  3 10 4.75176845E+01 1.54639773E+06 2.40000000E-02 2.55000000E+01 14 
  3 9 4.75166691E+01 1.54639773E+06 2.40000000E-02 2.55000000E+01 14 
  3 8 4.75156537E+01 1.54639773E+06 2.40000000E-02 2.55000000E+01 14 
  3 7 4.75146383E+01 1.54639773E+06 2.40000000E-02 2.55000000E+01 14 
  3 6 4.75136229E+01 1.54639773E+06 2.40000000E-02 2.55000000E+01 14 
  3 5 4.75126075E+01 1.54639773E+06 2.40000000E-02 2.55000000E+01 14 
  3 4 4.75115921E+01 1.54639773E+06 2.40000000E-02 2.55000000E+01 14 
  3 3 4.75105767E+01 1.54639773E+06 2.40000000E-02 2.55000000E+01 14 
  3 2 4.75095613E+01 1.54639773E+06 2.40000000E-02 2.55000000E+01 14 
  3 1 4.75087910E+01 7.99706562E+05 2.40000000E-02 2.55000000E+01 14 
  3 537 4.77458680E+01 8.60239293E+05 2.40000000E-02 2.55000000E+01 15 
  3 437 4.77385408E+01 1.55847036E+06 2.40000000E-02 2.55000000E+01 15 
  3 403 4.77290984E+01 1.55847036E+06 2.40000000E-02 2.55000000E+01 15 
  3 372 4.77196560E+01 1.55847036E+06 2.40000000E-02 2.55000000E+01 15 
  3 341 4.77102136E+01 1.55847036E+06 2.40000000E-02 2.55000000E+01 15 
  3 310 4.77007712E+01 1.55847036E+06 2.40000000E-02 2.55000000E+01 15 
  3 279 4.76913288E+01 1.55847036E+06 2.40000000E-02 2.55000000E+01 15 
  3 248 4.76818864E+01 1.55847036E+06 2.40000000E-02 2.55000000E+01 15 
  3 217 4.76724440E+01 1.55847036E+06 2.40000000E-02 2.55000000E+01 15 
  3 186 4.76630016E+01 1.55847036E+06 2.40000000E-02 2.55000000E+01 15 
  3 155 4.76535592E+01 1.55847036E+06 2.40000000E-02 2.55000000E+01 15 
  3 124 4.76441168E+01 1.55847036E+06 2.40000000E-02 2.55000000E+01 15 
  3 93 4.76346744E+01 1.55847036E+06 2.40000000E-02 2.55000000E+01 15 
  3 62 4.76252320E+01 1.55847036E+06 2.40000000E-02 2.55000000E+01 15 
  3 31 4.76171473E+01 1.11026604E+06 2.40000000E-02 2.55000000E+01 15 
  3 1017 4.78376681E+01 8.40069362E+05 2.40000000E-02 2.55000000E+01 16 
  3 1018 4.78404666E+01 1.54637304E+06 2.40000000E-02 2.55000000E+01 16 
  3 1019 4.78440934E+01 1.54637304E+06 2.40000000E-02 2.55000000E+01 16 
  3 1020 4.78477202E+01 1.54637304E+06 2.40000000E-02 2.55000000E+01 16 
  3 1021 4.78513471E+01 1.54637304E+06 2.40000000E-02 2.55000000E+01 16 
  3 1022 4.78549739E+01 1.54637304E+06 2.40000000E-02 2.55000000E+01 16 
  3 1023 4.78586007E+01 1.54637304E+06 2.40000000E-02 2.55000000E+01 16 
  3 1024 4.78622275E+01 1.54637304E+06 2.40000000E-02 2.55000000E+01 16 
  3 1025 4.78658543E+01 1.54637304E+06 2.40000000E-02 2.55000000E+01 16 
  3 1026 4.78694811E+01 1.54637304E+06 2.40000000E-02 2.55000000E+01 16 
  3 1027 4.78731079E+01 1.54637304E+06 2.40000000E-02 2.55000000E+01 16 
  3 1028 4.78767348E+01 1.54637304E+06 2.40000000E-02 2.55000000E+01 16 
  3 1029 4.78803616E+01 1.54637304E+06 2.40000000E-02 2.55000000E+01 16 
  3 1030 4.78839884E+01 1.54637304E+06 2.40000000E-02 2.55000000E+01 16 
  3 1031 4.78876152E+01 1.54637304E+06 2.40000000E-02 2.55000000E+01 16 
  3 1032 4.78902504E+01 7.00772085E+05 2.40000000E-02 2.55000000E+01 16 
  4 1 4.75877557E+01 8.38072935E+05 2.77000000E-02 2.70000000E+01 17 
  4 32 4.75919108E+01 1.55846226E+06 2.77000000E-02 2.70000000E+01 17 
  4 63 4.75973148E+01 1.55846226E+06 2.77000000E-02 2.70000000E+01 17 
  4 94 4.76027188E+01 1.55846226E+06 2.77000000E-02 2.70000000E+01 17 
  4 125 4.76081229E+01 1.55846226E+06 2.77000000E-02 2.70000000E+01 17 
  4 156 4.76135269E+01 1.55846226E+06 2.77000000E-02 2.70000000E+01 17 
  4 187 4.76189310E+01 1.55846226E+06 2.77000000E-02 2.70000000E+01 17 
  4 218 4.76243350E+01 1.55846226E+06 2.77000000E-02 2.70000000E+01 17 
  4 249 4.76297391E+01 1.55846226E+06 2.77000000E-02 2.70000000E+01 17 
  4 280 4.76351431E+01 1.55846226E+06 2.77000000E-02 2.70000000E+01 17 
  4 311 4.76405472E+01 1.55846226E+06 2.77000000E-02 2.70000000E+01 17 
  4 342 4.76459512E+01 1.55846226E+06 2.77000000E-02 2.70000000E+01 17 
  4 373 4.76513553E+01 1.55846226E+06 2.77000000E-02 2.70000000E+01 17 
  4 404 4.76567593E+01 1.55846226E+06 2.77000000E-02 2.70000000E+01 17 
  4 438 4.76609520E+01 8.59767421E+05 2.77000000E-02 2.70000000E+01 17 
  4 31 4.76689982E+01 9.00786692E+05 2.77000000E-02 2.70000000E+01 18 
  4 30 4.76672236E+01 1.54639773E+06 2.77000000E-02 2.70000000E+01 18 
  4 29 4.76649809E+01 1.54639773E+06 2.77000000E-02 2.70000000E+01 18 
  4 28 4.76627381E+01 1.54639773E+06 2.77000000E-02 2.70000000E+01 18 
  4 27 4.76604954E+01 1.54639773E+06 2.77000000E-02 2.70000000E+01 18 
  4 26 4.76582527E+01 1.54639773E+06 2.77000000E-02 2.70000000E+01 18 
  4 25 4.76560099E+01 1.54639773E+06 2.77000000E-02 2.70000000E+01 18 
  4 24 4.76537672E+01 1.54639773E+06 2.77000000E-02 2.70000000E+01 18 
  4 23 4.76515245E+01 1.54639773E+06 2.77000000E-02 2.70000000E+01 18 
  4 22 4.76492817E+01 1.54639773E+06 2.77000000E-02 2.70000000E+01 18 
  4 21 4.76470390E+01 1.54639773E+06 2.77000000E-02 2.70000000E+01 18 
  4 20 4.76447963E+01 1.54639773E+06 2.77000000E-02 2.70000000E+01 18 
  4 19 4.76425535E+01 1.54639773E+06 2.77000000E-02 2.70000000E+01 18 
  4 18 4.76403108E+01 1.54639773E+06 2.77000000E-02 2.70000000E+01 18 
  4 17 4.76380681E+01 1.54639773E+06 2.77000000E-02 2.70000000E+01 18 
  4 16 4.76363380E+01 8.39362119E+05 2.77000000E-02 2.70000000E+01 18 
  4 1032 4.78260947E+01 7.93002981E+05 2.77000000E-02 2.70000000E+01 19 
  4 1001 4.78218493E+01 1.55847036E+06 2.77000000E-02 2.70000000E+01 19 
  4 970 4.78162219E+01 1.55847036E+06 2.77000000E-02 2.70000000E+01 19 
  4 939 4.78105945E+01 1.55847036E+06 2.77000000E-02 2.70000000E+01 19 
  4 908 4.78049670E+01 1.55847036E+06 2.77000000E-02 2.70000000E+01 19 
  4 877 4.77993396E+01 1.55847036E+06 2.77000000E-02 2.70000000E+01 19 
  4 846 4.77937122E+01 1.55847036E+06 2.77000000E-02 2.70000000E+01 19 
  4 815 4.77880848E+01 1.55847036E+06 2.77000000E-02 2.70000000E+01 19 
  4 784 4.77824574E+01 1.55847036E+06 2.77000000E-02 2.70000000E+01 19 
  4 753 4.77768299E+01 1.55847036E+06 2.77000000E-02 2.70000000E+01 19 
  4 722 4.77712025E+01 1.55847036E+06 2.77000000E-02 2.70000000E+01 19 
  4 691 4.77655751E+01 1.55847036E+06 2.77000000E-02 2.70000000E+01 19 
  4 660 4.77599477E+01 1.55847036E+06 2.77000000E-02 2.70000000E+01 19 
  4 629 4.77543203E+01 1.55847036E+06 2.77000000E-02 2.70000000E+01 19 
  4 598 4.77486928E+01 1.55847036E+06 2.77000000E-02 2.70000000E+01 19 
  4 537 4.77446185E+01 6.98231069E+05 2.77000000E-02 2.70000000E+01 19 
  4 1002 4.77389243E+01 9.34462350E+05 2.77000000E-02 2.70000000E+01 20 
  4 1003 4.77412772E+01 1.54637304E+06 2.77000000E-02 2.70000000E+01 20 
  4 1004 4.77442105E+01 1.54637304E+06 2.77000000E-02 2.70000000E+01 20 
  4 1005 4.77471438E+01 1.54637304E+06 2.77000000E-02 2.70000000E+01 20 
  4 1006 4.77500771E+01 1.54637304E+06 2.77000000E-02 2.70000000E+01 20 
  4 1007 4.77530104E+01 1.54637304E+06 2.77000000E-02 2.70000000E+01 20 
  4 1008 4.77559438E+01 1.54637304E+06 2.77000000E-02 2.70000000E+01 20 
  4 1009 4.77588771E+01 1.54637304E+06 2.77000000E-02 2.70000000E+01 20 
  4 1010 4.77618104E+01 1.54637304E+06 2.77000000E-02 2.70000000E+01 20 
  4 1011 4.77647437E+01 1.54637304E+06 2.77000000E-02 2.70000000E+01 20 
  4 1012 4.77676770E+01 1.54637304E+06 2.77000000E-02 2.70000000E+01 20 
  4 1013 4.77706103E+01 1.54637304E+06 2.77000000E-02 2.70000000E+01 20 
  4 1014 4.77735436E+01 1.54637304E+06 2.77000000E-02 2.70000000E+01 20 
  4 1015 4.77764769E+01 1.54637304E+06 2.77000000E-02 2.70000000E+01 20 
  4 1016 4.77794102E+01 1.54637304E+06 2.77000000E-02 2.70000000E+01 20 
  4 1017 4.77815468E+01 7.06303682E+05 2.77000000E-02 2.70000000E+01 20 
  4 438 4.76635790E+01 6.98694840E+05 2.77000000E-02 2.70000000E+01 21 
  4 538 4.76672500E+01 1.55846226E+06 2.77000000E-02 2.70000000E+01 21 
  4 599 4.76723194E+01 1.55846226E+06 2.77000000E-02 2.70000000E+01 21 
  4 630 4.76773887E+01 1.55846226E+06 2.77000000E-02 2.70000000E+01 21 
  4 661 4.76824581E+01 1.55846226E+06 2.77000000E-02 2.70000000E+01 21 
  4 692 4.76875274E+01 1.55846226E+06 2.77000000E-02 2.70000000E+01 21 
  4 723 4.76925968E+01 1.55846226E+06 2.77000000E-02 2.70000000E+01 21 
  4 754 4.76976661E+01 1.55846226E+06 2.77000000E-02 2.70000000E+01 21 
  4 785 4.77027355E+01 1.55846226E+06 2.77000000E-02 2.70000000E+01 21 
  4 816 4.77078048E+01 1.55846226E+06 2.77000000E-02 2.70000000E+01 21 
  4 847 4.77128742E+01 1.55846226E+06 2.77000000E-02 2.70000000E+01 21 
  4 878 4.77179435E+01 1.55846226E+06 2.77000000E-02 2.70000000E+01 21 
  4 909 4.77230128E+01 1.55846226E+06 2.77000000E-02 2.70000000E+01 21 
  4 940 4.77280822E+01 1.55846226E+06 2.77000000E-02 2.70000000E+01 21 
  4 971 4.77331515E+01 1.55846226E+06 2.77000000E-02 2.70000000E+01 21 
  4 1002 4.77368621E+01 7.22998547E+05 2.77000000E-02 2.70000000E+01 21 
  4 16 4.76349748E+01 7.07035611E+05 2.77000000E-02 2.70000000E+01 22 
  4 15 4.76325698E+01 1.54639773E+06 2.77000000E-02 2.70000000E+01 22 
  4 14 4.76292691E+01 1.54639773E+06 2.77000000E-02 2.70000000E+01 22 
  4 13 4.76259683E+01 1.54639773E+06 2.77000000E-02 2.70000000E+01 22 
  4 12 4.76226676E+01 1.54639773E+06 2.77000000E-02 2.70000000E+01 22 
  4 11 4.76193668E+01 1.54639773E+06 2.77000000E-02 2.70000000E+01 22 
  4 10 4.76160660E+01 1.54639773E+06 2.77000000E-02 2.70000000E+01 22 
  4 9 4.76127653E+01 1.54639773E+06 2.77000000E-02 2.70000000E+01 22 
  4 8 4.76094645E+01 1.54639773E+06 2.77000000E-02 2.70000000E+01 22 
  4 7 4.76061638E+01 1.54639773E+06 2.77000000E-02 2.70000000E+01 22 
  4 6 4.76028630E+01 1.54639773E+06 2.77000000E-02 2.70000000E+01 22 
  4 5 4.75995623E+01 1.54639773E+06 2.77000000E-02 2.70000000E+01 22 
  4 4 4.75962615E+01 1.54639773E+06 2.77000000E-02 2.70000000E+01 22 
  4 3 4.75929608E+01 1.54639773E+06 2.77000000E-02 2.70000000E+01 22 
  4 2 4.75896600E+01 1.54639773E+06 2.77000000E-02 2.70000000E+01 22 
  4 1 4.75871561E+01 7.99706562E+05 2.77000000E-02 2.70000000E+01 22 
  4 537 4.77419318E+01 8.60239293E+05 2.77000000E-02 2.70000000E+01 23 
  4 437 4.77379222E+01 1.55847036E+06 2.77000000E-02 2.70000000E+01 23 
  4 403 4.77327550E+01 1.55847036E+06 2.77000000E-02 2.70000000E+01 23 
  4 372 4.77275878E+01 1.55847036E+06 2.77000000E-02 2.70000000E+01 23 
  4 341 4.77224207E+01 1.55847036E+06 2.77000000E-02 2.70000000E+01 23 
  4 310 4.77172535E+01 1.55847036E+06 2.77000000E-02 2.70000000E+01 23 
  4 279 4.77120863E+01 1.55847036E+06 2.77000000E-02 2.70000000E+01 23 
  4 248 4.77069191E+01 1.55847036E+06 2.77000000E-02 2.70000000E+01 23 
  4 217 4.77017520E+01 1.55847036E+06 2.77000000E-02 2.70000000E+01 23 
  4 186 4.76965848E+01 1.55847036E+06 2.77000000E-02 2.70000000E+01 23 
  4 155 4.76914176E+01 1.55847036E+06 2.77000000E-02 2.70000000E+01 23 
  4 124 4.76862504E+01 1.55847036E+06 2.77000000E-02 2.70000000E+01 23 
  4 93 4.76810833E+01 1.55847036E+06 2.77000000E-02 2.70000000E+01 23 
  4 62 4.76759161E+01 1.55847036E+06 2.77000000E-02 2.70000000E+01 23 
  4 31 4.76714919E+01 1.11026604E+06 2.77000000E-02 2.70000000E+01 23 
  4 1017 4.77830374E+01 8.40069362E+05 2.77000000E-02 2.70000000E+01 24 
  4 1018 4.77853687E+01 1.54637304E+06 2.77000000E-02 2.70000000E+01 24 
  4 1019 4.77883901E+01 1.54637304E+06 2.77000000E-02 2.70000000E+01 24 
  4 1020 4.77914115E+01 1.54637304E+06 2.77000000E-02 2.70000000E+01 24 
  4 1021 4.77944328E+01 1.54637304E+06 2.77000000E-02 2.70000000E+01 24 
  4 1022 4.77974542E+01 1.54637304E+06 2.77000000E-02 2.70000000E+01 24 
  4 1023 4.78004756E+01 1.54637304E+06 2.77000000E-02 2.70000000E+01 24 
  4 1024 4.78034970E+01 1.54637304E+06 2.77000000E-02 2.70000000E+01 24 
  4 1025 4.78065183E+01 1.54637304E+06 2.77000000E-02 2.70000000E+01 24 
  4 1026 4.78095397E+01 1.54637304E+06 2.77000000E-02 2.70000000E+01 24 
  4 1027 4.78125611E+01 1.54637304E+06 2.77000000E-02 2.70000000E+01 24 
  4 1028 4.78155824E+01 1.54637304E+06 2.77000000E-02 2.70000000E+01 24 
  4 1029 4.78186038E+01 1.54637304E+06 2.77000000E-02 2.70000000E+01 24 
  4 1030 4.78216252E+01 1.54637304E+06 2.77000000E-02 2.70000000E+01 24 
  4 1031 4.78246466E+01 1.54637304E+06 2.77000000E-02 2.70000000E+01 24 
  4 1032 4.78268418E+01 7.00772085E+05 2.77000000E-02 2.70000000E+01 24 
END PERIOD  1

BEGIN PERIOD  2
  2 1 3.30430386E+01 8.38072935E+05 2.04300000E-02 2.65000000E+01 1 
  2 32 3.30737244E+01 1.55846226E+06 2.04300000E-02 2.65000000E+01 1 
  2 63 3.31136343E+01 1.55846226E+06 2.04300000E-02 2.65000000E+01 1 
  2 94 3.31535442E+01 1.55846226E+06 2.04300000E-02 2.65000000E+01 1 
  2 125 3.31934541E+01 1.55846226E+06 2.04300000E-02 2.65000000E+01 1 
  2 156 3.32333640E+01 1.55846226E+06 2.04300000E-02 2.65000000E+01 1 
  2 187 3.32732739E+01 1.55846226E+06 2.04300000E-02 2.65000000E+01 1 
  2 218 3.33131838E+01 1.55846226E+06 2.04300000E-02 2.65000000E+01 1 
  2 249 3.33530936E+01 1.55846226E+06 2.04300000E-02 2.65000000E+01 1 
  2 280 3.33930035E+01 1.55846226E+06 2.04300000E-02 2.65000000E+01 1 
  2 311 3.34329134E+01 1.55846226E+06 2.04300000E-02 2.65000000E+01 1 
  2 342 3.34728233E+01 1.55846226E+06 2.04300000E-02 2.65000000E+01 1 
  2 373 3.35127332E+01 1.55846226E+06 2.04300000E-02 2.65000000E+01 1 
  2 404 3.35526431E+01 1.55846226E+06 2.04300000E-02 2.65000000E+01 1 
  2 438 3.35836067E+01 8.59767421E+05 2.04300000E-02 2.65000000E+01 1 
  2 31 3.20904658E+01 9.00786692E+05 2.04300000E-02 2.65000000E+01 2 
  2 30 3.21512900E+01 1.54639773E+06 2.04300000E-02 2.65000000E+01 2 
  2 29 3.22281607E+01 1.54639773E+06 2.04300000E-02 2.65000000E+01 2 
  2 28 3.23050315E+01 1.54639773E+06 2.04300000E-02 2.65000000E+01 2 
  2 27 3.23819022E+01 1.54639773E+06 2.04300000E-02 2.65000000E+01 2 
  2 26 3.24587729E+01 1.54639773E+06 2.04300000E-02 2.65000000E+01 2 
  2 25 3.25356437E+01 1.54639773E+06 2.04300000E-02 2.65000000E+01 2 
  2 24 3.26125144E+01 1.54639773E+06 2.04300000E-02 2.65000000E+01 2 
  2 23 3.26893851E+01 1.54639773E+06 2.04300000E-02 2.65000000E+01 2 
  2 22 3.27662559E+01 1.54639773E+06 2.04300000E-02 2.65000000E+01 2 
  2 21 3.28431266E+01 1.54639773E+06 2.04300000E-02 2.65000000E+01 2 
  2 20 3.29199973E+01 1.54639773E+06 2.04300000E-02 2.65000000E+01 2 
  2 19 3.29968681E+01 1.54639773E+06 2.04300000E-02 2.65000000E+01 2 
  2 18 3.30737388E+01 1.54639773E+06 2.04300000E-02 2.65000000E+01 2 
  2 17 3.31506095E+01 1.54639773E+06 2.04300000E-02 2.65000000E+01 2 
  2 16 3.32099071E+01 8.39362119E+05 2.04300000E-02 2.65000000E+01 2 
  2 1032 3.29579657E+01 7.93002981E+05 2.04300000E-02 2.65000000E+01 3 