# File generated by Flopy version 3.9.4 on 10/22/2025 at 13:15:12.
BEGIN OPTIONS
  SAVE_FLOWS
  K33OVERK
END OPTIONS

BEGIN GRIDDATA
  icelltype
    CONSTANT  -1
  k  LAYERED
    CONSTANT       1.00000000
    INTERNAL  FACTOR  1.0
      2.99148000E-04  3.07760000E-04  3.18734000E-04  3.32051000E-04  3.47694000E-04  3.65639000E-04  3.85792000E-04  4.08105000E-04  4.32542000E-04  4.59065000E-04  4.87636000E-04  5.18224000E-04  5.50799000E-04  5.85331000E-04  6.21793000E-04  6.60157000E-04  7.00396000E-04  7.42484000E-04  7.86397000E-04  8.32110000E-04
      8.79599000E-04  9.28840000E-04  9.79813000E-04       0.00103249       0.00108686       0.00114290       0.00120058       0.00125989       0.00132081       0.00138331       0.00144738  3.12842000E-04  3.19710000E-04  3.28935000E-04  3.40503000E-04  3.54396000E-04  3.70577000E-04  3.88962000E-04  4.09513000E-04  4.32196000E-04
      4.56977000E-04  4.83822000E-04  5.12701000E-04  5.43583000E-04  5.76439000E-04  6.11239000E-04  6.47956000E-04  6.86564000E-04  7.27035000E-04  7.69344000E-04  8.13468000E-04  8.59381000E-04  9.07061000E-04  9.56484000E-04       0.00100763       0.00106047       0.00111500       0.00117118       0.00122900       0.00128844
           0.00134948       0.00141211  3.27599000E-04  3.32640000E-04  3.40041000E-04  3.49790000E-04  3.61875000E-04  3.76245000E-04  3.92835000E-04  4.11610000E-04  4.32533000E-04  4.55572000E-04  4.80692000E-04  5.07862000E-04  5.37051000E-04  5.68229000E-04  6.01367000E-04  6.36437000E-04  6.73412000E-04  7.12265000E-04
      7.52971000E-04  7.95504000E-04  8.39840000E-04  8.85957000E-04  9.33829000E-04  9.83437000E-04       0.00103476       0.00108777       0.00114245       0.00119878       0.00125674       0.00131632       0.00137748  3.43234000E-04  3.46299000E-04  3.51859000E-04  3.59782000E-04  3.70050000E-04  3.82606000E-04  3.97401000E-04
      4.14399000E-04  4.33562000E-04  4.54858000E-04  4.78252000E-04  5.03713000E-04  5.31208000E-04  5.60708000E-04  5.92184000E-04  6.25606000E-04  6.60947000E-04  6.98181000E-04  7.37282000E-04  7.78223000E-04  8.20982000E-04  8.65533000E-04  9.11853000E-04  9.59921000E-04       0.00100971       0.00106121       0.00111439
           0.00116923       0.00122571       0.00128382       0.00134353  3.60799000E-04  3.61776000E-04  3.65074000E-04  3.70784000E-04  3.78983000E-04  3.89670000E-04  4.02669000E-04  4.17889000E-04  4.35292000E-04  4.54844000E-04  4.76511000E-04  5.00261000E-04  5.26062000E-04  5.53883000E-04  5.83695000E-04  6.15468000E-04
      6.49175000E-04  6.84788000E-04  7.22282000E-04  7.61631000E-04  8.02810000E-04  8.45794000E-04  8.90561000E-04  9.37087000E-04  9.85351000E-04       0.00103533       0.00108700       0.00114035       0.00119535       0.00125199       0.00131023  3.79275000E-04  3.78968000E-04  3.80465000E-04  3.84132000E-04  3.90115000E-04
      3.98435000E-04  4.09131000E-04  4.22226000E-04  4.37729000E-04  4.55536000E-04  4.75475000E-04  4.97514000E-04  5.21619000E-04  5.47759000E-04  5.75906000E-04  6.06028000E-04  6.38099000E-04  6.72091000E-04  7.07977000E-04  7.45731000E-04  7.85329000E-04  8.26745000E-04  8.69956000E-04  9.14939000E-04  9.61672000E-04
           0.00101013       0.00106030       0.00111215       0.00116567       0.00122083       0.00127762  3.97803000E-04  3.96736000E-04  3.97114000E-04  3.99212000E-04  4.03295000E-04  4.09604000E-04  4.18164000E-04  4.28996000E-04  4.42131000E-04  4.57587000E-04  4.75372000E-04  4.95490000E-04  5.17882000E-04  5.42341000E-04
      5.68820000E-04  5.97291000E-04  6.27725000E-04  6.60093000E-04  6.94370000E-04  7.30528000E-04  7.68543000E-04  8.08389000E-04  8.50043000E-04  8.93481000E-04  9.38681000E-04  9.85621000E-04       0.00103428       0.00108463       0.00113666       0.00119035       0.00124567  4.16158000E-04  4.14549000E-04  4.14164000E-04
      4.15223000E-04  4.17933000E-04  4.22500000E-04  4.29133000E-04  4.37994000E-04  4.49048000E-04  4.62319000E-04  4.77830000E-04  4.95596000E-04  5.15624000E-04  5.37917000E-04  5.62476000E-04  5.89261000E-04  6.18055000E-04  6.48799000E-04  6.81464000E-04  7.16025000E-04  7.52455000E-04  7.90730000E-04  8.30825000E-04
      8.72716000E-04  9.16382000E-04  9.61799000E-04       0.00100894       0.00105780       0.00110834       0.00116055       0.00121441  4.34264000E-04  4.32226000E-04  4.31259000E-04  4.31550000E-04  4.33268000E-04  4.36584000E-04  4.41668000E-04  4.48693000E-04  4.57830000E-04  4.69159000E-04  4.82630000E-04  4.98268000E-04
      5.16092000E-04  5.36113000E-04  5.58337000E-04  5.82768000E-04  6.09407000E-04  6.38250000E-04  6.69263000E-04  7.02224000E-04  7.37068000E-04  7.73770000E-04  8.12304000E-04  8.52648000E-04  8.94777000E-04  9.38669000E-04  9.84302000E-04       0.00103166       0.00108071       0.00113144       0.00118382  4.52089000E-04
      4.49687000E-04  4.48245000E-04  4.47923000E-04  4.48869000E-04  4.51226000E-04  4.55141000E-04  4.60755000E-04  4.68215000E-04  4.77666000E-04  4.89252000E-04  5.02966000E-04  5.18782000E-04  5.36721000E-04  5.56795000E-04  5.79015000E-04  6.03387000E-04  6.29914000E-04  6.58596000E-04  6.89432000E-04  7.22418000E-04
      7.57512000E-04  7.94484000E-04  8.33278000E-04  8.73869000E-04  9.16235000E-04  9.60353000E-04       0.00100620       0.00105376       0.00110301       0.00115393  4.69617000E-04  4.66894000E-04  4.65045000E-04  4.64210000E-04  4.64521000E-04  4.66105000E-04  4.69084000E-04  4.73586000E-04  4.79732000E-04  4.87649000E-04
      4.97462000E-04  5.09299000E-04  5.23263000E-04  5.39292000E-04  5.57386000E-04  5.77561000E-04  5.99827000E-04  6.24192000E-04  6.50663000E-04  6.79241000E-04  7.09928000E-04  7.42723000E-04  7.77623000E-04  8.14625000E-04  8.53660000E-04  8.94498000E-04  9.37100000E-04  9.81444000E-04       0.00102751       0.00107527
           0.00112472  4.86841000E-04  4.83827000E-04  4.81616000E-04  4.80337000E-04  4.80107000E-04  4.81039000E-04  4.83243000E-04  4.86828000E-04  4.91903000E-04  4.98578000E-04  5.06962000E-04  5.17166000E-04  5.29299000E-04  5.43476000E-04  5.59741000E-04  5.78021000E-04  5.98329000E-04  6.20679000E-04  6.45081000E-04
      6.71540000E-04  7.00061000E-04  7.30648000E-04  7.63300000E-04  7.98018000E-04  8.34800000E-04  8.73644000E-04  9.14547000E-04  9.57383000E-04       0.00100195       0.00104823       0.00109620  5.03758000E-04  5.00473000E-04  4.97935000E-04  4.96260000E-04  4.95556000E-04  4.95923000E-04  4.97462000E-04  5.00269000E-04
      5.04443000E-04  5.10079000E-04  5.17276000E-04  5.26130000E-04  5.36738000E-04  5.49201000E-04  5.63617000E-04  5.80085000E-04  5.98573000E-04  6.19042000E-04  6.41506000E-04  6.65976000E-04  6.92459000E-04  7.20961000E-04  7.51487000E-04  7.84039000E-04  8.18618000E-04  8.55224000E-04  8.93856000E-04  9.34512000E-04
      9.77191000E-04       0.00102188       0.00106838  5.20367000E-04  5.16828000E-04  5.13987000E-04  5.11953000E-04  5.10823000E-04  5.10690000E-04  5.11645000E-04  5.13776000E-04  5.17170000E-04  5.21917000E-04  5.28101000E-04  5.35810000E-04  5.45132000E-04  5.56154000E-04  5.68964000E-04  5.78657000E-04  5.86706000E-04
      5.81023000E-04  5.88641000E-04  6.00312000E-04  6.19005000E-04  6.39655000E-04  6.62255000E-04  6.86819000E-04  7.13354000E-04  7.41868000E-04  7.72366000E-04  8.04852000E-04  8.39328000E-04  8.75795000E-04  9.14253000E-04  9.54703000E-04  9.97142000E-04       0.00104157  5.36669000E-04  5.32888000E-04  5.29764000E-04
      5.27399000E-04  5.25881000E-04  5.25296000E-04  5.25728000E-04  5.27259000E-04  5.29968000E-04  5.33934000E-04  5.39237000E-04  5.45955000E-04  5.54167000E-04  5.63952000E-04  5.70599000E-04  5.76915000E-04  5.74188000E-04  5.80169000E-04  5.83678000E-04  5.88434000E-04  5.92210000E-04  5.89684000E-04  5.93361000E-04
      5.84168000E-04  5.87527000E-04  5.85717000E-04  5.87784000E-04  5.89458000E-04  5.88539000E-04  5.89590000E-04  5.90426000E-04  5.89962000E-04  5.90793000E-04  5.89779000E-04  5.91554000E-04  5.90462000E-04  5.92214000E-04  5.94580000E-04  5.90555000E-04  5.91415000E-04  5.90910000E-04  5.91765000E-04  5.92889000E-04
      5.90967000E-04  5.91390000E-04  5.91147000E-04  5.91569000E-04  5.91816000E-04  5.92243000E-04  5.91994000E-04  5.92419000E-04  5.91329000E-04  5.91599000E-04  5.91810000E-04  5.91689000E-04  5.91825000E-04  5.91930000E-04  5.91870000E-04  5.91975000E-04  5.91511000E-04  5.91780000E-04  5.91990000E-04  5.91871000E-04
      5.92081000E-04  5.92022000E-04  5.92233000E-04  5.92111000E-04  5.92323000E-04  5.92597000E-04  5.92352000E-04  5.92775000E-04  5.92974000E-04  5.93837000E-04  5.93324000E-04  5.94182000E-04  5.94646000E-04  5.96431000E-04  5.95313000E-04  5.97075000E-04  5.98588000E-04  6.06755000E-04  5.98277000E-04  6.02090000E-04
      5.99465000E-04  6.03182000E-04  6.08492000E-04  6.20426000E-04  6.39287000E-04  6.60130000E-04  6.82885000E-04  7.07563000E-04  7.34173000E-04  7.62724000E-04  7.93221000E-04  8.25669000E-04  8.60072000E-04  8.96432000E-04  9.34749000E-04  9.75026000E-04       0.00101726  5.52665000E-04  5.48652000E-04  5.45261000E-04
      5.42586000E-04  5.40709000E-04  5.39711000E-04  5.39669000E-04  5.40658000E-04  5.42753000E-04  5.46025000E-04  5.50548000E-04  5.56392000E-04  5.63631000E-04  5.72335000E-04  5.77940000E-04  5.83607000E-04  5.81828000E-04  5.87201000E-04  5.87314000E-04  5.89306000E-04  5.90338000E-04  5.91163000E-04  5.90716000E-04
      5.91536000E-04  5.90085000E-04  5.91695000E-04  5.88955000E-04  5.92061000E-04  5.91694000E-04  5.92112000E-04  5.91878000E-04  5.92295000E-04  5.92833000E-04  5.92362000E-04  5.93196000E-04  5.94280000E-04  5.93332000E-04  5.94996000E-04  5.97199000E-04  5.95272000E-04  5.98590000E-04  5.92975000E-04  5.99157000E-04
      6.03134000E-04  6.10516000E-04  6.05758000E-04  6.12786000E-04  6.23261000E-04  6.40389000E-04  6.59425000E-04  6.80439000E-04  7.03362000E-04  7.28170000E-04  7.54873000E-04  7.83481000E-04  8.14000000E-04  8.46434000E-04  8.80790000E-04  9.17069000E-04  9.55274000E-04  9.95407000E-04  5.68357000E-04  5.64120000E-04
      5.60475000E-04  5.57507000E-04  5.55295000E-04  5.53914000E-04  5.53436000E-04  5.53931000E-04  5.55468000E-04  5.58114000E-04  5.61936000E-04  5.67000000E-04  5.73371000E-04  5.81117000E-04  5.90302000E-04  6.00994000E-04  6.13258000E-04  6.27163000E-04  6.42777000E-04  6.60167000E-04  6.79406000E-04  7.00563000E-04
      7.23658000E-04  7.48609000E-04  7.75420000E-04  8.04101000E-04  8.34660000E-04  8.67101000E-04  9.01430000E-04  9.37652000E-04  9.75768000E-04  5.83746000E-04  5.79293000E-04  5.75404000E-04  5.72159000E-04  5.69631000E-04  5.67892000E-04  5.67009000E-04  5.67048000E-04  5.68073000E-04  5.70147000E-04  5.73331000E-04
      5.77688000E-04  5.83278000E-04  5.90163000E-04  5.98402000E-04  6.08057000E-04  6.19190000E-04  6.31862000E-04  6.46135000E-04  6.62072000E-04  6.79738000E-04  6.99196000E-04  7.20513000E-04  7.43751000E-04  7.68854000E-04  7.95785000E-04  8.24552000E-04  8.55165000E-04  8.87630000E-04  9.21951000E-04  9.58134000E-04
      5.98837000E-04  5.94174000E-04  5.90049000E-04  5.86538000E-04  5.83710000E-04  5.81633000E-04  5.80371000E-04  5.79985000E-04  5.80536000E-04  5.82082000E-04  5.84682000E-04  5.88392000E-04  5.93270000E-04  5.99373000E-04  6.06756000E-04  6.15477000E-04  6.25591000E-04  6.37156000E-04  6.50229000E-04  6.64868000E-04
      6.81131000E-04  6.99078000E-04  7.18770000E-04  7.40266000E-04  7.63629000E-04  7.88883000E-04  8.15942000E-04  8.44807000E-04  8.75487000E-04  9.07988000E-04  9.42316000E-04  6.13630000E-04  6.08763000E-04  6.04410000E-04  6.00643000E-04  5.97529000E-04  5.95132000E-04  5.93511000E-04  5.92727000E-04  5.92834000E-04
      5.93890000E-04  5.95948000E-04  5.99062000E-04  6.03286000E-04  6.08672000E-04  6.15273000E-04  6.23142000E-04  6.32331000E-04  6.42892000E-04  6.54880000E-04  6.68348000E-04  6.83349000E-04  6.99939000E-04  7.18172000E-04  7.38105000E-04  7.59795000E-04  7.83299000E-04  8.08676000E-04  8.35870000E-04  8.64841000E-04
      8.95597000E-04  9.28147000E-04  6.28130000E-04  6.23062000E-04  6.18488000E-04  6.14474000E-04  6.11086000E-04  6.08382000E-04  6.06422000E-04  6.05260000E-04  6.04951000E-04  6.05547000E-04  6.07100000E-04  6.09660000E-04  6.13277000E-04  6.18002000E-04  6.23882000E-04  6.30969000E-04  6.39310000E-04  6.48955000E-04
      6.59953000E-04  6.72355000E-04  6.86210000E-04  7.01569000E-04  7.18483000E-04  7.37004000E-04  7.57185000E-04  7.79079000E-04  8.02740000E-04  8.28224000E-04  8.55550000E-04  8.84634000E-04  9.15475000E-04  6.42339000E-04  6.37075000E-04  6.32284000E-04  6.28031000E-04  6.24378000E-04  6.21381000E-04  6.19096000E-04
      6.17577000E-04  6.16873000E-04  6.17036000E-04  6.18114000E-04  6.20156000E-04  6.23208000E-04  6.27316000E-04  6.32529000E-04  6.38892000E-04  6.46450000E-04  6.55251000E-04  6.65340000E-04  6.76764000E-04  6.89570000E-04  7.03804000E-04  7.19515000E-04  7.36751000E-04  7.55560000E-04  7.75993000E-04  7.98098000E-04
      8.21928000E-04  8.47534000E-04  8.74967000E-04  9.04168000E-04  6.56259000E-04  6.50802000E-04  6.45800000E-04  6.41315000E-04  6.37405000E-04  6.34126000E-04  6.31531000E-04  6.29669000E-04  6.28591000E-04  6.28344000E-04  6.28974000E-04  6.30527000E-04  6.33048000E-04  6.36581000E-04  6.41170000E-04  6.46858000E-04
      6.53690000E-04  6.61708000E-04  6.70956000E-04  6.81477000E-04  6.93316000E-04  7.06516000E-04  7.21123000E-04  7.37180000E-04  7.54734000E-04  7.73830000E-04  7.94515000E-04  8.16837000E-04  8.40844000E-04  8.66585000E-04  8.94110000E-04  6.69895000E-04  6.64248000E-04  6.59039000E-04  6.54327000E-04  6.50168000E-04
      6.46616000E-04  6.43721000E-04  6.41533000E-04  6.40096000E-04  6.39459000E-04  6.39664000E-04  6.40755000E-04  6.42775000E-04  6.45766000E-04  6.49769000E-04  6.54827000E-04  6.60979000E-04  6.68267000E-04  6.76733000E-04  6.86416000E-04  6.97358000E-04  7.09602000E-04  7.23187000E-04  7.38157000E-04  7.54554000E-04
      7.72421000E-04  7.91802000E-04  8.12740000E-04  8.35282000E-04  8.59472000E-04  8.85357000E-04  6.83248000E-04  6.77414000E-04  6.72001000E-04  6.67067000E-04  6.62667000E-04  6.58850000E-04  6.55667000E-04  6.53163000E-04  6.51384000E-04  6.50373000E-04  6.50173000E-04  6.50825000E-04  6.52371000E-04  6.54849000E-04
      6.58300000E-04  6.62764000E-04  6.68278000E-04  6.74882000E-04  6.82616000E-04  6.91516000E-04  7.01623000E-04  7.12975000E-04  7.25612000E-04  7.39574000E-04  7.54899000E-04  7.71629000E-04  7.89804000E-04  8.09466000E-04  8.30658000E-04  8.53420000E-04  8.77798000E-04  6.96322000E-04  6.90302000E-04  6.84690000E-04
      6.79539000E-04  6.74902000E-04  6.70829000E-04  6.67366000E-04  6.64558000E-04  6.62449000E-04  6.61080000E-04  6.60493000E-04  6.60726000E-04  6.61820000E-04  6.63812000E-04  6.66740000E-04  6.70642000E-04  6.75555000E-04  6.81515000E-04  6.88560000E-04  6.96726000E-04  7.06050000E-04  7.16569000E-04  7.28320000E-04
      7.41341000E-04  7.55668000E-04  7.71341000E-04  7.88397000E-04  8.06875000E-04  8.26815000E-04  8.48256000E-04  8.71240000E-04  7.09118000E-04  7.02916000E-04  6.97106000E-04  6.91743000E-04  6.86876000E-04  6.82552000E-04  6.78818000E-04  6.75716000E-04  6.73288000E-04  6.71575000E-04  6.70615000E-04  6.70448000E-04
      6.71110000E-04  6.72639000E-04  6.75070000E-04  6.78439000E-04  6.82781000E-04  6.88133000E-04  6.94528000E-04  7.02002000E-04  7.10589000E-04  7.20326000E-04  7.31246000E-04  7.43385000E-04  7.56779000E-04  7.71464000E-04  7.87475000E-04  8.04850000E-04  8.23625000E-04  8.43839000E-04  8.65528000E-04  7.21640000E-04
      7.15257000E-04  7.09254000E-04  7.03681000E-04  6.98588000E-04  6.94020000E-04  6.90022000E-04  6.86635000E-04  6.83899000E-04  6.81853000E-04  6.80536000E-04  6.79984000E-04  6.80233000E-04  6.81318000E-04  6.83274000E-04  6.86136000E-04  6.89936000E-04  6.94710000E-04  7.00489000E-04  7.07308000E-04  7.15200000E-04
      7.24198000E-04  7.34336000E-04  7.45646000E-04  7.58163000E-04  7.71921000E-04  7.86954000E-04  8.03296000E-04  8.20982000E-04  8.40048000E-04  8.60530000E-04  7.33891000E-04  7.27329000E-04  7.21133000E-04  7.15355000E-04  7.10041000E-04  7.05235000E-04  7.00979000E-04  6.97314000E-04  6.94280000E-04  6.91913000E-04
      6.90250000E-04  6.89328000E-04  6.89179000E-04  6.89839000E-04  6.91341000E-04  6.93718000E-04  6.97001000E-04  7.01224000E-04  7.06419000E-04  7.12616000E-04  7.19848000E-04  7.28148000E-04  7.37545000E-04  7.48073000E-04  7.59763000E-04  7.72648000E-04  7.86759000E-04  8.02131000E-04  8.18795000E-04  8.36785000E-04
      8.56136000E-04  7.45872000E-04  7.39132000E-04  7.32748000E-04  7.26768000E-04  7.21236000E-04  7.16196000E-04  7.11689000E-04  7.07754000E-04  7.04430000E-04  7.01751000E-04  6.99755000E-04  6.98474000E-04  6.97943000E-04  6.98195000E-04  6.99260000E-04  7.01172000E-04  7.03961000E-04  7.07658000E-04  7.12294000E-04
      7.17899000E-04  7.24505000E-04  7.32140000E-04  7.40835000E-04  7.50622000E-04  7.61529000E-04  7.73589000E-04  7.86831000E-04  8.01287000E-04  8.16988000E-04  8.33967000E-04  8.52254000E-04
    INTERNAL  FACTOR  1.0
         135.75800000     135.84300000     135.92400000     136.00000000     136.07100000     136.13800000     136.20000000     136.25800000     136.31200000     136.36200000     136.40800000     136.44900000     136.48700000     136.52000000     136.54900000     136.57200000     136.59000000     136.60400000     136.61400000     136.62000000
         136.62200000     136.62000000     136.61400000     136.60300000     136.58800000     136.56900000     136.54700000     136.52100000     136.49200000     136.46000000     136.42400000     135.75500000     135.83900000     135.91900000     135.99400000     136.06400000     136.13000000     136.19200000     136.25000000     136.30400000
         136.35300000     136.39900000     136.44100000     136.47800000     136.51000000     136.53700000     136.55900000     136.57700000     136.59000000     136.60000000     136.60600000     136.60700000     136.60500000     136.59900000     136.58800000     136.57300000     136.55400000     136.53200000     136.50600000     136.47700000
         136.44500000     136.40900000     135.74800000     135.83100000     135.90900000     135.98300000     136.05300000     136.11900000     136.18100000     136.23900000     136.29200000     136.34200000     136.38800000     136.42900000     136.46500000     136.49500000     136.52100000     136.54300000     136.56000000     136.57300000
         136.58200000     136.58800000     136.58900000     136.58700000     136.58100000     136.56900000     136.55400000     136.53500000     136.51300000     136.48700000     136.45800000     136.42600000     136.39000000     135.73500000     135.81800000     135.89600000     135.97000000     136.03900000     136.10500000     136.16700000
         136.22400000     136.27800000     136.32800000     136.37300000     136.41200000     136.44600000     136.47600000     136.50100000     136.52200000     136.53900000     136.55200000     136.56100000     136.56600000     136.56800000     136.56500000     136.55900000     136.54700000     136.53100000     136.51300000     136.49000000
         136.46500000     136.43600000     136.40400000     136.36800000     135.71900000     135.80100000     135.87900000     135.95200000     136.02200000     136.08700000     136.14900000     136.20700000     136.26100000     136.30900000     136.35200000     136.39000000     136.42400000     136.45200000     136.47700000     136.49800000
         136.51400000     136.52700000     136.53600000     136.54200000     136.54300000     136.54000000     136.53300000     136.52100000     136.50600000     136.48700000     136.46500000     136.43900000     136.41000000     136.37800000     136.34300000     135.70000000     135.78100000     135.85900000     135.93200000     136.00200000
         136.06700000     136.12900000     136.18700000     136.23900000     136.28500000     136.32700000     136.36400000     136.39700000     136.42500000     136.45000000     136.47000000     136.48700000     136.49900000     136.50800000     136.51400000     136.51500000     136.51200000     136.50400000     136.49200000     136.47600000
         136.45800000     136.43600000     136.41000000     136.38200000     136.35000000     136.31500000     135.67700000     135.75800000     135.83600000     135.90900000     135.97900000     136.04400000     136.10600000     136.16100000     136.21200000     136.25700000     136.29800000     136.33500000     136.36700000     136.39500000
         136.41900000     136.43900000     136.45600000     136.46800000     136.47700000     136.48200000     136.48300000     136.48000000     136.47100000     136.45900000     136.44400000     136.42500000     136.40300000     136.37800000     136.35000000     136.31800000     136.28300000     135.65100000     135.73200000     135.81000000
         135.88300000     135.95300000     136.01800000     136.07700000     136.13100000     136.18100000     136.22500000     136.26500000     136.30100000     136.33300000     136.36100000     136.38500000     136.40500000     136.42100000     136.43400000     136.44300000     136.44800000     136.44800000     136.44400000     136.43600000
         136.42400000     136.40900000     136.39000000     136.36800000     136.34300000     136.31500000     136.28300000     136.24900000     135.62200000     135.70400000     135.78100000     135.85500000     135.92400000     135.98700000     136.04400000     136.09700000     136.14600000     136.18900000     136.22900000     136.26500000
         136.29600000     136.32400000     136.34800000     136.36800000     136.38400000     136.39600000     136.40500000     136.41000000     136.41000000     136.40600000     136.39700000     136.38500000     136.37000000     136.35200000     136.33000000     136.30500000     136.27700000     136.24500000     136.21100000     135.59100000
         135.67300000     135.75000000     135.82200000     135.88900000     135.95100000     136.00700000     136.05900000     136.10700000     136.15000000     136.18900000     136.22500000     136.25600000     136.28300000     136.30700000     136.32700000     136.34300000     136.35600000     136.36400000     136.36900000     136.36800000
         136.36400000     136.35500000     136.34400000     136.32800000     136.31000000     136.28900000     136.26400000     136.23600000     136.20500000     136.17100000     135.55800000     135.63900000     135.71500000     135.78500000     135.85000000     135.91100000     135.96700000     136.01800000     136.06500000     136.10800000
         136.14700000     136.18200000     136.21300000     136.24000000     136.26400000     136.28400000     136.30000000     136.31200000     136.32000000     136.32400000     136.32400000     136.31900000     136.31100000     136.29900000     136.28400000     136.26600000     136.24400000     136.22000000     136.19200000     136.16100000
         136.12700000     135.52100000     135.60100000     135.67500000     135.74400000     135.80800000     135.86700000     135.92200000     135.97300000     136.01900000     136.06200000     136.10100000     136.13600000     136.16700000     136.19400000     136.21700000     136.23700000     136.25300000     136.26500000     136.27300000
         136.27700000     136.27600000     136.27100000     136.26300000     136.25100000     136.23700000     136.21900000     136.19800000     136.17300000     136.14600000     136.11500000     136.08100000     135.48000000     135.55800000     135.63000000     135.69800000     135.76100000     135.82000000     135.87400000     135.92500000
         135.97100000     136.01300000     136.05200000     136.08700000     136.11800000     136.14500000     136.16800000     136.18800000     136.20400000     136.21600000     136.22300000     136.22700000     136.22600000     136.22100000     136.21300000     136.20100000     136.18700000     136.16900000     136.14800000     136.12400000
         136.09600000     136.06600000     136.03300000     135.43400000     135.51100000     135.58200000     135.64900000     135.71200000     135.77000000     135.82400000     135.87400000     135.92000000     135.96200000     136.00000000     136.03500000     136.06600000     136.09300000     136.11600000     136.14500000     136.15300000
         136.11800000     136.12700000     136.15100000     136.16300000     136.17100000     136.17400000     136.17200000     136.16700000     136.15900000     136.14800000     136.13400000     136.11600000     136.09500000     136.07200000     136.04500000     136.01400000     135.98100000     135.38500000     135.46000000     135.53100000
         135.59700000     135.65900000     135.71600000     135.77000000     135.82000000     135.86500000     135.90700000     135.94600000     135.98000000     136.01100000     136.03800000     136.07000000     136.08000000     136.04200000     136.05200000     136.09000000     136.10400000     136.10800000     136.09000000     136.09400000
         136.06700000     136.07100000     136.05300000     136.06000000     136.06200000     136.05200000     136.05600000     136.05700000     136.05200000     136.05300000     136.07800000     136.08000000     136.07100000     136.07300000     136.08000000     136.06500000     136.06600000     136.06200000     136.06300000     136.06600000
         136.05900000     136.05900000     136.05700000     136.05700000     136.06000000     136.06000000     136.05800000     136.05900000     136.05500000     136.05600000     136.05600000     136.05500000     136.05600000     136.05600000     136.05500000     136.05500000     136.05300000     136.05400000     136.05400000     136.05300000
         136.05400000     136.05700000     136.05700000     136.05600000     136.05600000     136.05700000     136.05400000     136.05500000     136.06000000     136.06100000     136.05700000     136.05800000     136.06800000     136.07000000     136.06100000     136.06300000     136.10700000     136.11400000     136.08400000     136.08700000
         136.07000000     136.07300000     136.08500000     136.10800000     136.11500000     136.11700000     136.11600000     136.11100000     136.10400000     136.09300000     136.07800000     136.06100000     136.04000000     136.01700000     135.99000000     135.96000000     135.92700000     135.33200000     135.40600000     135.47600000
         135.54100000     135.60300000     135.66000000     135.71300000     135.76300000     135.80800000     135.85000000     135.88800000     135.92300000     135.95300000     135.98000000     136.01300000     136.02300000     135.98300000     135.99400000     136.03800000     136.04500000     136.04900000     136.05000000     136.04500000
         136.04600000     136.03800000     136.04000000     136.02300000     136.02800000     136.05200000     136.05200000     136.05000000     136.05000000     136.05200000     136.04700000     136.04800000     136.05200000     136.04200000     136.04400000     136.05100000     136.03200000     136.03700000     136.00400000     136.01200000
         136.05000000     136.05600000     136.02000000     136.02600000     136.04900000     136.05600000     136.05800000     136.05700000     136.05300000     136.04500000     136.03400000     136.02000000     136.00300000     135.98300000     135.95900000     135.93300000     135.90300000     135.87100000     135.27500000     135.34800000
         135.41800000     135.48300000     135.54400000     135.60100000     135.65400000     135.70300000     135.74800000     135.79000000     135.82800000     135.86300000     135.89300000     135.92000000     135.94300000     135.96200000     135.97700000     135.98800000     135.99500000     135.99700000     135.99600000     135.99200000
         135.98400000     135.97300000     135.96000000     135.94300000     135.92300000     135.90000000     135.87300000     135.84400000     135.81200000     135.21500000     135.28800000     135.35700000     135.42100000     135.48200000     135.53900000     135.59100000     135.64000000     135.68600000     135.72800000     135.76600000
         135.80000000     135.83000000     135.85700000     135.88000000     135.89900000     135.91400000     135.92400000     135.93000000     135.93300000     135.93200000     135.92800000     135.92100000     135.91000000     135.89700000     135.88000000     135.86000000     135.83700000     135.81100000     135.78200000     135.75000000
         135.15200000     135.22400000     135.29300000     135.35700000     135.41700000     135.47400000     135.52700000     135.57500000     135.62100000     135.66200000     135.70000000     135.73400000     135.76500000     135.79200000     135.81400000     135.83300000     135.84800000     135.85800000     135.86400000     135.86600000
         135.86600000     135.86200000     135.85500000     135.84400000     135.83100000     135.81500000     135.79500000     135.77300000     135.74700000     135.71800000     135.68700000     135.08600000     135.15800000     135.22600000     135.29000000     135.35000000     135.40600000     135.45900000     135.50800000     135.55300000
         135.59500000     135.63200000     135.66700000     135.69700000     135.72300000     135.74600000     135.76500000     135.77900000     135.78900000     135.79500000     135.79700000     135.79700000     135.79300000     135.78600000     135.77600000     135.76300000     135.74700000     135.72800000     135.70500000     135.68000000
         135.65200000     135.62100000     135.01800000     135.08900000     135.15700000     135.22000000     135.28000000     135.33700000     135.38900000     135.43800000     135.48300000     135.52400000     135.56200000     135.59600000     135.62600000     135.65300000     135.67500000     135.69300000     135.70700000     135.71700000