# File generated by Flopy version 3.9.4 on 10/22/2025 at 13:15:12.
BEGIN OPTIONS
  TIME_UNITS  days
  START_DATE_TIME  2010-01-18t00:00:00
END OPTIONS

BEGIN DIMENSIONS
  NPER  21
END DIMENSIONS

BEGIN PERIODDATA
       1.00000000  1       1.00000000
      13.00000000  2       1.00000000
      28.00000000  3       1.00000000
      31.00000000  3       1.00000000
      30.00000000  3       1.00000000
      31.00000000  3       1.00000000
      30.00000000  3       1.00000000
       9.00000000  1       1.00000000
      22.00000000  2       1.00000000
      31.00000000  3       1.00000000
      30.00000000  3       1.00000000
      31.00000000  3       1.00000000
      30.00000000  3       1.00000000
      31.00000000  3       1.00000000
       3.00000000  1       1.00000000
      28.00000000  3       1.00000000
      28.00000000  3       1.00000000
      31.00000000  3       1.00000000
      30.00000000  3       1.00000000
      31.00000000  3       1.00000000
      16.00000000  2       1.00000000
END PERIODDATA

