# File generated by Flopy version 3.9.4 on 10/22/2025 at 13:15:12.
BEGIN OPTIONS
  COMPLEXITY  simple
END OPTIONS

BEGIN LINEAR
  LINEAR_ACCELERATION  bicgstab
END LINEAR

