# File generated by Flopy version 3.9.4 on 10/22/2025 at 13:15:14.
BEGIN OPTIONS
  LENGTH_UNITS  feet
END OPTIONS

BEGIN DIMENSIONS
  NLAY  5
  NCPL  1032
  NVERT  1129
END DIMENSIONS

BEGIN GRIDDATA
  top
    INTERNAL  FACTOR  1.0
        15.18693161      15.20439625      15.21578312      15.23240852      15.26912022      15.30648708      15.35301971      15.38322353      15.42371273      15.46740627      15.49771595      15.53855228      15.57850552      15.58660698      15.59804344      15.61029816      15.61251640      15.61872101      15.63178349      15.64035225
        15.64244652      15.65067673      15.66272545      15.67343998      15.67920399      15.68203354      15.69036770      15.70160675      15.71369362      15.72316456      15.72797108      15.18804550      15.20162392      15.21512699      15.23619747      15.26659966      15.31391525      15.35234165      15.38354969      15.42770958
        15.46615314      15.49991226      15.54440403      15.58252144      15.60763645      15.62378883      15.63346767      15.63914585      15.64897823      15.66110897      15.66900635      15.67159176      15.67919922      15.69012642      15.69918156      15.70713425      15.71508884      15.72112846      15.72874928      15.73749352
        15.74831104      15.75858307      15.18720722      15.19871807      15.21565247      15.23718548      15.27078629      15.31808376      15.34879112      15.38719940      15.43145561      15.46542740      15.50642967      15.54889679      15.58267689      15.62054062      15.64414310      15.65442657      15.66016197      15.67011929
        15.68151379      15.69036579      15.69773865      15.70651817      15.71741962      15.72813797      15.73527050      15.74091625      15.74993324      15.75972366      15.76723099      15.77454376      15.77991676      15.18393517      15.19800377      15.21617222      15.23488140      15.27827072      15.31826878      15.34949684
        15.39192295      15.43287086      15.46768284      15.51158619      15.54930115      15.58104706      15.62067032      15.66062927      15.67490196      15.68033695      15.69145870      15.70354557      15.71188068      15.71830750      15.72727776      15.73795033      15.74880219      15.75885105      15.76657677      15.77252769
        15.78090954      15.79124737      15.79990292      15.80669880      15.18177700      15.19901085      15.21492290      15.23791313      15.28351021      15.31585217      15.35321426      15.39651680      15.43171215      15.47038460      15.51290894      15.54701710      15.57841682      15.61764526      15.65748978      15.68922234
        15.70229912      15.71399021      15.72614098      15.73510742      15.73999786      15.74699306      15.75699806      15.76756001      15.77788162      15.78799057      15.79739666      15.80504322      15.81109619      15.80271435      15.77332592      15.18327522      15.20003796      15.21413994      15.24514389      15.28471851
        15.31547832      15.35718632      15.39736271      15.43050003      15.47242355      15.51222801      15.54377747      15.57600307      15.61482716      15.65456772      15.68958855      15.71915913      15.73585796      15.74709797      15.75649834      15.76354790      15.76998329      15.77814770      15.78797913      15.79802704
        15.80747890      15.81688786      15.82416344      15.80257225      15.76687241      15.73415852      15.18724155      15.19898033      15.21418858      15.24923229      15.28268719      15.31718922      15.35826206      15.39571190      15.43031788      15.47328186      15.51065350      15.54090786      15.57455730      15.61393166
        15.65433407      15.69063568      15.72633839      15.75300980      15.76665211      15.77645016      15.78509998      15.79333210      15.80164814      15.81011200      15.81890297      15.82796955      15.83637238      15.80462933      15.76983643      15.73445797      15.69583893      15.19670105      15.19776535      15.21328354
        15.25011826      15.27963734      15.31698895      15.35831261      15.39377022      15.43132591      15.47332478      15.50902748      15.53921890      15.57454586      15.61564732      15.65612984      15.69224739      15.72797108      15.76610279      15.78617668      15.79732513      15.80676746      15.81503487      15.82322979
        15.83204937      15.84046268      15.83929157      15.81151581      15.77562428      15.73624706      15.69697762      15.66148186      15.20215130      15.20586491      15.21231365      15.24684620      15.27761745      15.31688976      15.35824585      15.39296436      15.43259525      15.47282982      15.50763607      15.53848362
        15.57555008      15.61811638      15.65778637      15.69302654      15.72659302      15.76235867      15.80025291      15.81818771      15.82871246      15.83834553      15.84695721      15.85367012      15.83629608      15.80535221      15.77114964      15.73735332      15.70366573      15.66566277      15.62395859      15.20037079
        15.20547390      15.22373867      15.24463844      15.27827168      15.31938553      15.35840321      15.39310741      15.43290234      15.47162151      15.50641441      15.53841782      15.57657719      15.61889648      15.65754414      15.69295788      15.72597027      15.75945568      15.79517174      15.83169651      15.84874725
        15.85870361      15.86773396      15.83669853      15.79931355      15.76351261      15.73084831      15.69869995      15.66424179      15.62937737      15.59208775      15.20017815      15.21727180      15.23690128      15.25270271      15.28311443      15.32323074      15.35863400      15.39278984      15.43150234      15.46961975
        15.50511169      15.53868580      15.57691860      15.61766338      15.65507317      15.69099426      15.72578812      15.76043606      15.79608345      15.83242798      15.86380672      15.87226582      15.84317303      15.80672550      15.76892757      15.73009872      15.69202900      15.65877819      15.62961483      15.59426117
        15.55500317      15.20920372      15.23285294      15.25078297      15.26528549      15.28672028      15.32452297      15.35782909      15.39077854      15.42858696      15.46683598      15.50377464      15.53917313      15.57682323      15.61520863      15.65135670      15.68730068      15.72404957      15.76145935      15.79900265
        15.83639240      15.87138939      15.86686230      15.83070755      15.78912830      15.74901676      15.70958328      15.66857529      15.62677956      15.59285927      15.56198120      15.52157784      15.22305870      15.24686050      15.26292992      15.27775860      15.30017090      15.32262802      15.35553455      15.38787842
        15.42503357      15.46376610      15.50265503      15.54011536      15.57691097      15.61280155      15.64765739      15.68365288      15.72244167      15.76293182      15.80195904      15.83662415      15.86914062      15.89885521      15.87825203      15.83157730      15.78192139      15.73350143      15.68864059      15.64761639
        15.60681629      15.56640434      15.52325439      15.23811150      15.25917435      15.27519512      15.29158878      15.31331348      15.33475971      15.35407829      15.38642597      15.42293739      15.46218681      15.50272274      15.54150867      15.57777691      15.61180210      15.64568996      15.67755318      15.69752121
        15.67786789      15.69562531      15.72279644      15.76339817      15.79784775      15.83018875      15.86232185      15.89440536      15.92276669      15.89539337      15.84759235      15.79957104      15.75153637      15.70366096      15.65560913      15.60505772      15.56026363      15.25443363      15.27329063      15.28942680
        15.30713081      15.32716370      15.34735298      15.36535645      15.38842010      15.42501831      15.46449852      15.50487709      15.54338932      15.57949352      15.61347294      15.63961315      15.65928936      15.64159966      15.65524387      15.67555237      15.69282722      15.69576931      15.69135284      15.70232868
        15.67333698      15.67899704      15.67277622      15.68197346      15.68661499      15.68356991      15.68690491      15.68789577      15.68707180      15.68799019      15.68747425      15.69461060      15.68800163      15.69269276      15.70450687      15.68777657      15.68858624      15.68805313      15.68836689      15.68998718
        15.68811607      15.68819332      15.68817234      15.68821621      15.68824482      15.68832302      15.68823338      15.68827534      15.68819809      15.68822289      15.68822765      15.68822575      15.68822861      15.68822956      15.68822956      15.68822956      15.68819237      15.68822384      15.68822861      15.68821812
        15.68822479      15.68822956      15.68823338      15.68822956      15.68823147      15.68825436      15.68822956      15.68825436      15.68855667      15.68957329      15.68843842      15.68927956      15.69558334      15.70263386      15.69274139      15.69964504      15.71519184      15.72821140      15.70753002      15.71384621
        15.70832920      15.71671009      15.73235798      15.75646210      15.78838253      15.81982517      15.85179615      15.88455009      15.91756821      15.93975163      15.91052914      15.86652565      15.82152176      15.77318859      15.72109699      15.66734219      15.61507320      15.26836777      15.28837204      15.30301857
        15.32146740      15.34234142      15.36211300      15.37996197      15.39746284      15.42805862      15.46647453      15.50514793      15.54259777      15.57873440      15.61369228      15.63548660      15.66118336      15.64376163      15.65268135      15.67087650      15.68228436      15.68673515      15.68782234      15.68588638
        15.68728924      15.67814732      15.68467903      15.66908932      15.67730522      15.68815136      15.68820477      15.68806839      15.68815994      15.68824863      15.68794441      15.68827820      15.68901634      15.68782043      15.69041729      15.69605827      15.69031620      15.69847679      15.67692375      15.68917847
        15.71127605      15.72396851      15.70691490      15.72614193      15.74979401      15.78007889      15.81070423      15.84263229      15.87628365      15.91110325      15.94418716      15.95147896      15.91821480      15.87519455      15.82960033      15.78040409      15.73387146      15.68927383      15.28069115      15.30079651
        15.31571198      15.33337116      15.35509968      15.37650871      15.39543724      15.41200638      15.42921448      15.46348286      15.50056171      15.53733826      15.57345581      15.60908604      15.64216995      15.67798519      15.71366787      15.74532604      15.77461338      15.80470181      15.83713436      15.87234211
        15.90838528      15.94180393      15.97148037      15.95914650      15.91558075      15.87334251      15.82864189      15.78166866      15.74178123      15.29430771      15.31205273      15.32968521      15.34700203      15.36679935      15.38816261      15.40878296      15.42731953      15.44396496      15.46161842      15.49622440
        15.53229809      15.56827068      15.60140800      15.63595486      15.67332268      15.70869923      15.73995113      15.76955509      15.80009556      15.83326817      15.86954308      15.90508556      15.93737507      15.96692085      15.99775791      15.97529984      15.93212414      15.88372231      15.83044434      15.78394127
        15.29566479      15.31754684      15.33666611      15.35599232      15.37464714      15.39420319      15.41519260      15.43634415      15.45670033      15.47609043      15.49671936      15.53061962      15.56397724      15.59750938      15.63227272      15.66797829      15.70172405      15.73285389      15.76356220      15.79534531
        15.82861900      15.86427116      15.89858627      15.93050098      15.95900917      15.98966026      16.02420425      15.99675655      15.94554520      15.89865875      15.85247707      15.28697395      15.31056309      15.33258247      15.35330677      15.37485123      15.39608383      15.41631413      15.43610954      15.45623684
        15.47463417      15.46596241      15.47377682      15.51944351      15.56532383      15.61017036      15.65471363      15.69265175      15.72456932      15.75580597      15.78924942      15.82232952      15.85718632      15.89059067      15.92262459      15.95112419      15.98159790      16.01634216      16.03693199      16.00585556
        15.96565723      15.90900230      15.28851604      15.30589676      15.32603168      15.34729576      15.36824512      15.39003277      15.41225910      15.43403244      15.45221901      15.43699646      15.41486740      15.39307594      15.42302608      15.46608448      15.51422787      15.56464481      15.60350132      15.63260841
        15.67205524      15.72866440      15.78767204      15.83491135      15.85978889      15.89083004      15.93474483      15.97380066      16.01099205      16.04128647      16.04306602      16.00063705      15.89055443      15.28288364      15.30677414      15.32664776      15.34459305      15.36392212      15.38439846      15.40485764
        15.41864872      15.40497780      15.38433647      15.36159801      15.33710670      15.31216335      15.35010338      15.39552689      15.44762230      15.48860359      15.52072430      15.56657314      15.62294769      15.68144608      15.72171688      15.74530983      15.79578400      15.85190296      15.89842129      15.93944550
        15.99223518      16.04196548      15.95063686      15.86038685      15.27492619      15.29718304      15.32166195      15.34465694      15.36489010      15.38138294      15.37580109      15.35757160      15.33949852      15.32294369      15.30438232      15.28133965      15.25512123      15.23067665      15.27662659      15.33080387
        15.37530613      15.41335201      15.46398449      15.51577187      15.57387352      15.60756779      15.63369465      15.69238186      15.74907684      15.79511642      15.82857990      15.88492870      15.88405037      15.87852573      15.83438015      15.27721214      15.29496193      15.31297207      15.33515930      15.35887527
        15.34395695      15.32391930      15.30282593      15.28146172      15.26138592      15.24298668      15.22302341      15.19892693      15.17369175      15.16767693      15.22005844      15.26893806      15.31489563      15.36169052      15.40853977      15.46489334      15.49215221      15.52624130      15.58877182      15.64559841
        15.67631340      15.70362663      15.73075294      15.71450615      15.75234032      15.76559162      15.26998615      15.29325867      15.31449795      15.32257175      15.30768681      15.28808117      15.26635551      15.24369431      15.22244263      15.20392609      15.18668270      15.16814041      15.14595413      15.12081909
        15.09921741      15.11829662      15.17040730      15.21833897      15.25391293      15.30162907      15.35208511      15.37534332      15.42199135      15.48404980      15.53226566      15.52372360      15.56984329      15.56262970      15.56732559      15.61299133      15.60294914      15.26639843      15.28477097      15.28846550
        15.27609539      15.25580978      15.23221874      15.20942307      15.18637753      15.16183949      15.13988400      15.12643623      15.11428356      15.09301186      15.06553268      15.04021263      15.02889156      15.06950092      15.10812569      15.13913345      15.19449043      15.23385715      15.26072598      15.31821823
        15.37243938      15.37453747      15.38613129      15.41770363      15.40206718      15.44206238      15.46264839      15.46449280      15.26765823      15.25511456      15.23139954      15.20842266      15.19337177      15.17938519      15.15870571      15.13402939      15.10763931      15.08269310      15.06484318      15.05465889
        15.03453445      15.00486755      14.97877598      14.97092915      14.95506668      14.98491955      15.02394676      15.08316040      15.11265755      15.15101242      15.20148468      15.22669601      15.21717167      15.25911427      15.25337505      15.26207256      15.31058311      15.31636620      15.33171082      15.27139854
        15.21106529      15.18700218      15.16512585      15.14104462      15.11923599      15.10390854      15.08318996      15.05784607      15.03237629      15.01032639      14.99373245      14.97298336      14.94437599      14.92141533      14.91392040      14.89168453      14.86235809      14.91650009      14.96631527      14.99469280
        15.02246952      15.06459618      15.07229042      15.07649136      15.11361504      15.09511566      15.13673115      15.16734409      15.15813923      15.21007061      15.25805569      15.20832443      15.15603924      15.12913227      15.10544491      15.08383942      15.06208134      15.04169083      15.01469612      14.98554134
        14.96412563      14.94703102      14.92354488      14.89613247      14.87381268      14.85781765      14.83063126      14.80417347      14.81531715      14.85057926      14.85747433      14.89251995      14.92307091      14.91181278      14.95262432      14.94932175      14.95406914      15.00565529      15.00714588      15.02839756
        15.05074310      15.27853966      15.19178009      15.13869286      15.09917068      15.07122803      15.04716492      15.02893925      15.00657749      14.98162746      14.95307541      14.92971516      14.91560650      14.88882732      14.85839081      14.83813095      14.81935501      14.79055023      14.76509094      14.74539757
        14.73034954      14.73365974      14.76973820      14.76663494      14.77205753      14.80894852      14.78685284      14.83303452      14.85640049      14.84803677      14.89965916      14.87388897
  botm  LAYERED
    INTERNAL  FACTOR  1.0
        -154.61701965    -153.98017883    -153.50099182    -152.90925598    -152.28488159    -151.69941711    -151.05587769    -150.57324219    -149.99559021    -149.39082336    -148.89479065    -148.32798767    -147.68487549    -147.13400269    -146.54568481    -145.86814880    -145.27182007    -144.67533875    -143.97744751    -143.32382202
        -142.73129272    -142.08821106    -141.54786682    -140.99896240    -140.37539673    -139.72366333    -139.00427246    -138.43742371    -137.96949768    -137.29290771    -136.61392212    -154.74652100    -154.21815491    -153.68785095    -153.03288269    -152.49884033    -151.81607056    -151.27293396    -150.77206421    -150.17828369
        -149.59565735    -149.08212280    -148.45533752    -147.85122681    -147.29396057    -146.66918945    -146.04167175    -145.47074890    -144.90777588    -144.27604675    -143.62374878    -143.03308105    -142.36833191    -141.65747070    -141.04080200    -140.52117920    -139.99876404    -139.39485168    -138.66201782    -137.95684814
        -137.47811890    -136.96070862    -154.94561768    -154.45881653    -153.84251404    -153.22242737    -152.65095520    -151.98593140    -151.49972534    -150.95289612    -150.33822632    -149.79400635    -149.19476318    -148.55422974    -148.00849915    -147.39457703    -146.75321960    -146.18574524    -145.59692383    -144.95295715
        -144.35836792    -143.79307556    -143.23535156    -142.67739868    -142.02442932    -141.31762695    -140.65525818    -140.05108643    -139.51223755    -139.00968933    -138.35350037    -137.60104370    -136.96665955    -155.19444275    -154.65675354    -153.97492981    -153.42935181    -152.76118469    -152.18957520    -151.68721008
        -151.11763000    -150.50820923    -149.95599365    -149.28738403    -148.71099854    -148.18371582    -147.56680298    -146.96128845    -146.40003967    -145.81625366    -145.15266418    -144.50166321    -143.91590881    -143.33306885    -142.73376465    -142.18946838    -141.62480164    -140.98049927    -140.31266785    -139.65795898
        -139.02059937    -138.50497437    -137.98973083    -137.30816650    -155.42041016    -154.78024292    -154.15422058    -153.55786133    -152.90754700    -152.40556335    -151.85708618    -151.26805115    -150.69718933    -150.08401489    -149.43667603    -148.90614319    -148.38534546    -147.79386902    -147.19308472    -146.64198303
        -146.08750916    -145.45788574    -144.79743958    -144.16110229    -143.56756592    -142.93447876    -142.26649475    -141.64183044    -141.10893250    -140.57659912    -139.96334839    -139.29789734    -138.62463379    -138.03889465    -137.64906311    -155.52381897    -154.88044739    -154.32734680    -153.65917969    -153.10253906
        -152.60321045    -152.03196716    -151.42695618    -150.87702942    -150.21566772    -149.61944580    -149.11219788    -148.59461975    -148.01441956    -147.40304565    -146.83285522    -146.28990173    -145.69935608    -145.06555176    -144.42678833    -143.81715393    -143.22711182    -142.59848022    -141.92221069    -141.23832703
        -140.60200500    -140.05918884    -139.55953979    -139.02912903    -138.44705200    -137.86839294    -155.59098816    -155.05828857    -154.45622253    -153.82954407    -153.32218933    -152.79696655    -152.20483398    -151.60548401    -151.03866577    -150.37043762    -149.81208801    -149.31468201    -148.78904724    -148.19377136
        -147.56021118    -146.97682190    -146.40158081    -145.78936768    -145.16615295    -144.56353760    -143.97373962    -143.39227295    -142.81895447    -142.23437500    -141.60337830    -140.92819214    -140.23748779    -139.67866516    -139.23542786    -138.85787964    -138.35615540    -155.79493713    -155.27593994    -154.64299011
        -154.04252625    -153.54978943    -152.99459839    -152.36964417    -151.78756714    -151.18305969    -150.53890991    -150.00132751    -149.50285339    -148.95542908    -148.32072449    -147.68482971    -147.10978699    -146.53462219    -145.92613220    -145.29556274    -144.67398071    -144.07308960    -143.48521423    -142.89843750
        -142.31878662    -141.76069641    -141.22587585    -140.71142578    -140.15873718    -139.57150269    -139.01127625    -138.57789612    -156.04991150    -155.51586914    -154.86642456    -154.26458740    -153.76054382    -153.17233276    -152.52513123    -151.95503235    -151.32281494    -150.71481323    -150.18453979    -149.67781067
        -149.09967041    -148.43244934    -147.81724548    -147.26405334    -146.72132874    -146.15396118    -145.56692505    -144.94749451    -144.31669617    -143.68798828    -143.06579590    -142.45304871    -141.90718079    -141.41450500    -140.95922852    -140.52671814    -140.05911255    -139.50697327    -138.90635681    -156.26936340
        -155.71337891    -155.05503845    -154.46304321    -153.92115784    -153.29211426    -152.67504883    -152.10719299    -151.48008728    -150.90170288    -150.36573792    -149.84243774    -149.24069214    -148.57426453    -147.98368835    -147.43777466    -146.90873718    -146.37342834    -145.81681824    -145.24201965    -144.63319397
        -144.00846863    -143.37852478    -142.83723450    -142.30227661    -141.76733398    -141.24391174    -140.73841858    -140.26498413    -139.85812378    -139.40641785    -156.38932800    -155.76432800    -155.17741394    -154.61526489    -154.00199890    -153.38374329    -152.82685852    -152.26779175    -151.66859436    -151.10089111
        -150.54959106    -150.00259399    -149.39314270    -148.75079346    -148.18453979    -147.63832092    -147.09028625    -146.53681946    -145.97357178    -145.40270996    -144.81977844    -144.23574829    -143.72908020    -143.24011230    -142.74058533    -142.22105408    -141.68162537    -141.14115906    -140.60418701    -140.05450439
        -139.56250000    -156.55584717    -155.89370728    -155.33552551    -154.76809692    -154.11968994    -153.52864075    -152.99969482    -152.46069336    -151.88414001    -151.31150818    -150.73440552    -150.16027832    -149.55484009    -148.94792175    -148.40177917    -147.85789490    -147.28453064    -146.68946838    -146.09298706
        -145.49952698    -144.91436768    -144.38252258    -143.88790894    -143.40234375    -142.92831421    -142.47473145    -142.01898193    -141.53622437    -141.02912903    -140.51261902    -139.94230652    -156.84172058    -156.16355896    -155.57418823    -155.00634766    -154.36593628    -153.74275208    -153.20191956    -152.67593384
        -152.11018372    -151.52377319    -150.91255188    -150.31037903    -149.71745300    -149.14616394    -148.61596680    -148.07012939    -147.46395874    -146.82019043    -146.20074463    -145.61238098    -145.04510498    -144.49053955    -143.99906921    -143.52847290    -143.04067993    -142.54090881    -142.05891418    -141.61590576
        -141.18356323    -140.75875854    -140.32238770    -157.03080750    -156.40315247    -155.81329346    -155.26171875    -154.64073181    -153.99743652    -153.40710449    -152.87193298    -152.30961609    -151.70579529    -151.06707764    -150.45115662    -149.87353516    -149.32955933    -148.80473328    -148.29388428    -147.94502258
        -148.33023071    -148.08840942    -147.60432434    -146.95324707    -146.36122131    -145.79899597    -145.24098206    -144.68182373    -144.13206482    -143.66299438    -143.20710754    -142.71507263    -142.19833374    -141.69268799    -141.24186707    -140.78546143    -140.31578064    -157.04316711    -156.49766541    -155.95382690
        -155.39326477    -154.81149292    -154.18948364    -153.58596802    -153.01327515    -152.43261719    -151.81504822    -151.18199158    -150.58175659    -150.02003479    -149.48551941    -149.04461670    -148.70994568    -149.07843018    -148.88177490    -148.48805237    -148.16717529    -148.12583923    -148.22804260    -148.07575989
        -148.54377747    -148.46992493    -148.60963440    -148.46166992    -148.40196228    -148.45552063    -148.40373230    -148.39010620    -148.40364075    -148.38961792    -148.33679199    -148.22358704    -148.36079407    -148.28179932    -148.06924438    -148.38333130    -148.37072754    -148.38591003    -148.38087463    -148.34790039
        -148.38697815    -148.38598633    -148.38671875    -148.38619995    -148.38513184    -148.38357544    -148.38591003    -148.38497925    -148.38656616    -148.38624573    -148.38619995    -148.38623047    -148.38619995    -148.38619995    -148.38619995    -148.38619995    -148.38670349    -148.38626099    -148.38619995    -148.38635254
        -148.38624573    -148.38616943    -148.38604736    -148.38619995    -148.38612366    -148.38558960    -148.38616943    -148.38565063    -148.37918091    -148.35997009    -148.38214111    -148.36701965    -148.24385071    -148.11451721    -148.30398560    -148.18145752    -147.85194397    -147.62860107    -148.01890564    -147.91238403
        -148.02369690    -147.89523315    -147.60342407    -147.15559387    -146.59681702    -146.05122375    -145.49806213    -144.92973328    -144.35035706    -143.79605103    -143.33009338    -142.87731934    -142.38533020    -141.86779785    -141.38490295    -140.93815613    -140.40885925    -157.30033875    -156.66358948    -156.10002136
        -155.47866821    -154.85510254    -154.27391052    -153.70706177    -153.12782288    -152.53576660    -151.92900085    -151.32756042    -150.75207520    -150.19912720    -149.66012573    -149.26031494    -148.85510254    -149.20979309    -149.06546021    -148.70082092    -148.48945618    -148.41111755    -148.39294434    -148.42829895
        -148.40339661    -148.57504272    -148.45536804    -148.75038147    -148.60615540    -148.38740540    -148.38655090    -148.38897705    -148.38742065    -148.38584900    -148.39189148    -148.38633728    -148.37379456    -148.39978027    -148.35922241    -148.26576233    -148.38288879    -148.25090027    -148.65206909    -148.43289185
        -148.00851440    -147.78945923    -148.13021851    -147.78047180    -147.34999084    -146.81661987    -146.28312683    -145.73008728    -145.14527893    -144.53538513    -143.94238281    -143.41104126    -142.93782043    -142.46852112    -141.98135376    -141.51048279    -141.08445740    -140.60253906    -157.59790039    -156.94496155
        -156.35749817    -155.74549866    -155.08859253    -154.45083618    -153.85780334    -153.29040527    -152.71269226    -152.13398743    -151.55722046    -150.99179077    -150.43872070    -149.89025879    -149.32089233    -148.68940735    -148.06178284    -147.50877380    -146.99215698    -146.46266174    -145.89654541    -145.28077698
        -144.64921570    -144.06359863    -143.51115417    -142.98271179    -142.46862793    -141.99891663    -141.56379700    -141.11778259    -140.66384888    -157.62713623    -157.11013794    -156.56112671    -156.00883484    -155.40112305    -154.75482178    -154.11587524    -153.50724792    -152.92669678    -152.35455322    -151.79475403
        -151.23287964    -150.67135620    -150.10253906    -149.49749756    -148.83839417    -148.21914673    -147.67877197    -147.16017151    -146.61837769    -146.03378296    -145.39547729    -144.77603149    -144.21511841    -143.69006348    -143.12197876    -142.58117676    -142.08990479    -141.66560364    -141.18116760    -140.65805054
        -157.82916260    -157.19807434    -156.64193726    -156.08453369    -155.54164124    -154.98503113    -154.38461304    -153.76698303    -153.15473938    -152.55444336    -151.96594238    -151.39405823    -150.82023621    -150.23561096    -149.62617493    -148.99845886    -148.41072083    -147.87522888    -147.34075928    -146.77593994