# File generated by Flopy version 3.9.4 on 10/22/2025 at 13:15:14.
BEGIN OPTIONS
END OPTIONS

BEGIN GRIDDATA
  strt  LAYERED
    CONSTANT       0.02044000
    CONSTANT       0.02043000
    CONSTANT       0.02400000
    CONSTANT       0.02770000
    CONSTANT       0.11075500
END GRIDDATA

