# File generated by Flopy version 3.9.4 on 10/22/2025 at 13:15:14.
BEGIN OPTIONS
END OPTIONS

BEGIN GRIDDATA
  porosity
    CONSTANT       0.30000000
END GRIDDATA

