# File generated by Flopy version 3.9.4 on 10/22/2025 at 13:15:14.
BEGIN OPTIONS
END OPTIONS

BEGIN GRIDDATA
  strt  LAYERED
    CONSTANT      24.00000000
    CONSTANT      26.50000000
    CONSTANT      25.50000000
    CONSTANT      27.00000000
    CONSTANT      26.60000000
END GRIDDATA

