# File generated by Flopy version 3.9.4 on 10/22/2025 at 13:15:14.
BEGIN OPTIONS
  LIST  trans-TDS_output/model.lst
  PRINT_INPUT
  PRINT_FLOWS
  SAVE_FLOWS
END OPTIONS

BEGIN PACKAGES
  disv6  trans-TDS.disv  disv
  adv6  trans-TDS.adv  adv
  dsp6  trans-TDS.dsp  dsp
  ic6  trans-TDS.ic  ic
  mst6  trans-TDS.mst  mst
  oc6  trans-TDS.oc  oc
  ssm6  trans-TDS.ssm  ssm
END PACKAGES

