# File generated by Flopy version 3.9.4 on 10/22/2025 at 13:15:14.
BEGIN OPTIONS
  BUDGET  FILEOUT  trans-TDS_output/trans-TDS.cbc
  CONCENTRATION  FILEOUT  trans-TDS_output/trans-TDS.ucn
END OPTIONS

BEGIN PERIOD  1
  SAVE  budget  all
  SAVE  concentration  all
  PRINT  budget  all
  PRINT  concentration  all
END PERIOD  1

