# File generated by Flopy version 3.9.4 on 10/22/2025 at 13:15:14.
BEGIN OPTIONS
END OPTIONS

BEGIN GRIDDATA
  alh
    CONSTANT       2.50000000
  alv
    CONSTANT       2.50000000
  ath1
    CONSTANT       0.25000000
  ath2
    CONSTANT       0.25000000
  atv
    CONSTANT       0.02500000
END GRIDDATA

