# File generated by Flopy version 3.9.4 on 10/22/2025 at 13:15:14.
BEGIN OPTIONS
  LIST  trans-temp_output/model.lst
  PRINT_INPUT
  PRINT_FLOWS
  SAVE_FLOWS
END OPTIONS

BEGIN PACKAGES
  disv6  trans-temp.disv  disv
  adv6  trans-temp.adv  adv
  dsp6  trans-temp.dsp  dsp
  ic6  trans-temp.ic  ic
  mst6  trans-temp.mst  mst
  oc6  trans-temp.oc  oc
  ssm6  trans-temp.ssm  ssm
END PACKAGES

