# PHREEQC input file
# from Example 11: Transport and cation exchange
#
SOLUTION 1  Initial solution for column (initial condition)
    units            mmol/kgw
    temp             25.0
    pH               7.0     charge
    pe               12.5    O2(g)   -0.68
    Na               1.0
    K                0.2
    N(5)             1.2

END
SOLUTION 2  Inflow solution (boundary condition)
    units            mmol/kgw
    temp             25.0
    pH               7.0     charge
    pe               12.5    O2(g)   -0.68
    Ca               0.6
    Cl               1.2
END
EXCHANGE 1
    -equilibrate 1
    X                0.0011
END